
**** 05/06/19 23:01:18 ********* PSpice 9.2 (Mar 2000) ******** ID# 1 ********

 * D:\GIT\MAI\viser\modeling\Datasheet_example\SimmetrCM.sch


 ****     CIRCUIT DESCRIPTION


******************************************************************************




* Schematics Version 9.2
* Mon May 06 23:01:12 2019



** Analysis setup **
.tran 0ns 80m 0 1.57u SKIPBP
.OPTIONS ABSTOL=1uA
.OPTIONS DIGINITSTATE=2
.OPTIONS DIGIOLVL=1
.OPTIONS ITL4=70
.OPTIONS RELTOL=0.01


* From [PSPICE NETLIST] section of d:\Program Files\Orcad\PSpice\PSpice.ini:
.lib "D:\Program Files\Orcad\PSpice\UserLib\OPA_2.lib"
.lib "D:\Program Files\Orcad\PSpice\UserLib\MyLib.lib"
.lib "nom.lib"

.INC "SimmetrCM.net"



**** INCLUDING SimmetrCM.net ****
* Schematics Netlist *



X_S1    AA1 0 $N_0001 $N_0002 SimmetrCM_S1 
D_D1         $N_0002 $N_0001 Dbreak 
X_S3    AA2 0 $N_0003 $N_0004 SimmetrCM_S3 
D_D3         $N_0004 $N_0003 Dbreak 
L_L1         $N_0002 $N_0004  12m  
D_D7         $N_0005 $N_0006 Dbreak 
D_D8         $N_0007 $N_0006 Dbreak 
D_D6         0 $N_0007 Dbreak 
D_D5         0 $N_0005 Dbreak 
V_V2         $N_0008 0 15
R_R6         $N_0010 $N_0009  50k  
C_C6         $N_0011 $N_0009  100p  
C_C7         $N_0011 $N_0010  1n  
R_R7         $N_0012 $N_0011  5k  
Kn_K1         L_L1 L_L2     1
R_R9         $N_0013 $N_0012  10k  
R_R18         $N_0012 0  5.1k  
R_R8         $N_0014 0  3m  
V_V1         $N_0001 0 240
L_L2         $N_0007 $N_0005  0.75m  
C_C1         0 $N_0015  0.5n  
C_C8         0 $N_0016  100u  
L_L5         $N_0016 $N_0006  1m  
R_R19         $N_0016 $N_0012  32k  
C_C9         $N_0013 $N_0016  300p  
V_V8         $N_0016 $N_0014 25
R_R2         $N_0015 $N_0017  1k  
D_D4         $N_0017 $N_0004 Dbreak 
X_S4    AA1 0 $N_0004 $N_0017 SimmetrCM_S4 
D_D2         $N_0017 $N_0002 Dbreak 
X_S2    AA2 0 $N_0002 $N_0017 SimmetrCM_S2 
R_R1         0 $N_0017  620m  
R_R25         $N_0018 $N_0017  1k  
R_R26         $N_0018 $N_0019  4k  
Q_Q2         $N_0015 $N_0020 0 Q2N1420
X_U1         $N_0011 $N_0019 $N_0009 $N_0021 $N_0022 $N_0018 $N_0023 $N_0015 0
+  AA1 0 $N_0008 AA2 $N_0008 $N_0019 SG1825 
+ PARAMS: PERIOD={1/20k} DEADTIME=5e-8
X_U4         AA1 AA2 $N_0020 $G_DPWR $G_DGND NOR2
R_R3         $N_0021 0  500k  
C_C4         0 $N_0022  1n  
C_C2         0 $N_0023  100p  
C_C10         0 $N_0011  1n  
C_C3         0 $N_0019  1u  
C_C5         0 $N_0018  500p  
V_V3         $N_0003 0 100

.subckt SimmetrCM_S1 1 2 3 4  
S_S1         3 4 1 2 _S1
RS_S1         1 2 1G
.MODEL         _S1 VSWITCH Roff=1e6 Ron=1m Voff=0.0V Von=1.0V
.ends SimmetrCM_S1

.subckt SimmetrCM_S3 1 2 3 4  
S_S3         3 4 1 2 _S3
RS_S3         1 2 1G
.MODEL         _S3 VSWITCH Roff=1e6 Ron=1m Voff=0.0V Von=1.0V
.ends SimmetrCM_S3

.subckt SimmetrCM_S4 1 2 3 4  
S_S4         3 4 1 2 _S4
RS_S4         1 2 1G
.MODEL         _S4 VSWITCH Roff=1e6 Ron=1m Voff=0.0V Von=1.0V
.ends SimmetrCM_S4

.subckt SimmetrCM_S2 1 2 3 4  
S_S2         3 4 1 2 _S2
RS_S2         1 2 1G
.MODEL         _S2 VSWITCH Roff=1e6 Ron=1m Voff=0.0V Von=1.0V
.ends SimmetrCM_S2

**** RESUMING SimmetrCM.cir ****
.PROBE V(*) I(*) W(*) D(*) NOISE(*) 


.END


**** Generated AtoD and DtoA Interfaces ****

*
* Analog/Digital interface for node $N_0020
*
* Moving X_U4.U1:OUT1 from analog node $N_0020 to new digital node $N_0020$DtoA
X$$N_0020_DtoA1
+ $N_0020$DtoA
+ $N_0020
+ $G_DPWR
+ $G_DGND
+ DtoAdefault
+       PARAMS: DRVH=  50     DRVL=  50     CAPACITANCE=   0     
*
* Analog/Digital interface for node $N_0021
*
* Moving X_U1.u99:OUT1 from analog node $N_0021 to new digital node $N_0021$DtoA
X$$N_0021_DtoA1
+ $N_0021$DtoA
+ $N_0021
+ X_U1.DPWR
+ X_U1.DGND
+ DtoA_STD
+       PARAMS: DRVH=  96.4   DRVL= 104    CAPACITANCE=   0     
*
* Analog/Digital interface for node AA1
*
* Moving X_U4.U1:IN1 from analog node AA1 to new digital node AA1$AtoD
X$AA1_AtoD1
+ AA1
+ AA1$AtoD
+ $G_DPWR
+ $G_DGND
+ AtoDdefault
+       PARAMS: CAPACITANCE=   0     
*
* Analog/Digital interface for node AA2
*
* Moving X_U4.U1:IN2 from analog node AA2 to new digital node AA2$AtoD
X$AA2_AtoD1
+ AA2
+ AA2$AtoD
+ $G_DPWR
+ $G_DGND
+ AtoDdefault
+       PARAMS: CAPACITANCE=   0     
*
* Analog/Digital interface for node X_U1.xoutst.31
*
* Moving X_U1.xoutst.un1:OUT1 from analog node X_U1.xoutst.31 to new digital node X_U1.xoutst.31$DtoA
X$X_U1.xoutst.31_DtoA1
+ X_U1.xoutst.31$DtoA
+ X_U1.xoutst.31
+ X_U1.DPWR
+ X_U1.DGND
+ dtoa_s_o1
+       PARAMS: DRVH=   1.0000E+06 DRVL=  60.6   CAPACITANCE=   0     
*
* Analog/Digital interface for node X_U1.xoutst.32
*
* Moving X_U1.xoutst.un2:OUT1 from analog node X_U1.xoutst.32 to new digital node X_U1.xoutst.32$DtoA
X$X_U1.xoutst.32_DtoA1
+ X_U1.xoutst.32$DtoA
+ X_U1.xoutst.32
+ X_U1.DPWR
+ X_U1.DGND
+ dtoa_s_o1
+       PARAMS: DRVH=   1.0000E+06 DRVL=  60.6   CAPACITANCE=   0     
*
* Analog/Digital interface for node X_U1.xoutst.33
*
* Moving X_U1.xoutst.un11:OUT1 from analog node X_U1.xoutst.33 to new digital node X_U1.xoutst.33$DtoA
X$X_U1.xoutst.33_DtoA1
+ X_U1.xoutst.33$DtoA
+ X_U1.xoutst.33
+ X_U1.DPWR
+ X_U1.DGND
+ dtoa_s_o1
+       PARAMS: DRVH=   1.0000E+06 DRVL=  60.6   CAPACITANCE=   0     
*
* Analog/Digital interface for node X_U1.xoutst.34
*
* Moving X_U1.xoutst.un22:OUT1 from analog node X_U1.xoutst.34 to new digital node X_U1.xoutst.34$DtoA
X$X_U1.xoutst.34_DtoA1
+ X_U1.xoutst.34$DtoA
+ X_U1.xoutst.34
+ X_U1.DPWR
+ X_U1.DGND
+ dtoa_s_o1
+       PARAMS: DRVH=   1.0000E+06 DRVL=  60.6   CAPACITANCE=   0     
*
* Analog/Digital interface for node X_U1.45
*
* Moving X_U1.uor2:OUT1 from analog node X_U1.45 to new digital node X_U1.45$DtoA
X$X_U1.45_DtoA1
+ X_U1.45$DtoA
+ X_U1.45
+ X_U1.DPWR
+ X_U1.DGND
+ DtoA_STD
+       PARAMS: DRVH=  96.4   DRVL= 104    CAPACITANCE=   0     
*
* Analog/Digital interface power supply subcircuits
*

X$DIGIFPWR 0 DIGIFPWR

**** 05/06/19 23:01:18 ********* PSpice 9.2 (Mar 2000) ******** ID# 1 ********

 * D:\GIT\MAI\viser\modeling\Datasheet_example\SimmetrCM.sch


 ****     Diode MODEL PARAMETERS


******************************************************************************




               Dbreak          X_U1.xbl1.x2.x1.dxea25 
          IS   10.000000E-15  800.000000E-18 
          RS     .1                          
         CJO  100.000000E-15                 


**** 05/06/19 23:01:18 ********* PSpice 9.2 (Mar 2000) ******** ID# 1 ********

 * D:\GIT\MAI\viser\modeling\Datasheet_example\SimmetrCM.sch


 ****     BJT MODEL PARAMETERS


******************************************************************************




               Q2N1420         q_pwm           
               NPN             NPN             
          IS   14.340000E-15    1.340000E-15 
          BF  255.9            65.62         
          NF    1               1            
         VAF   74.03           74.03         
         IKF     .2847           .5385       
         ISE   14.340000E-15   19.480000E-15 
          NE    1.307           1.208        
          BR    6.092           9.715        
          NR    1               1            
          RB   10              10            
          RC    1               9            
         CJE   22.010000E-12    2.010000E-12 
         MJE     .377            .377        
         CJC    9.393000E-12    1.393000E-12 
         MJC     .3416           .3416       
          TF  410.000000E-12  408.800000E-12 
         XTF    3               3            
         VTF    1.7             1.7          
         ITF     .6              .6          
          TR   46.910000E-09  100.000000E-12 
         XTB    1.5             1.5          
          CN    2.42            2.42         
           D     .87             .87         


               X_U1.xbl1.x2.x1.qxea25 
               NPN             
          IS  800.000000E-18 
          BF  100            
          NF    1            
          BR    1            
          NR    1            
          CN    2.42         
           D     .87         


**** 05/06/19 23:01:18 ********* PSpice 9.2 (Mar 2000) ******** ID# 1 ********

 * D:\GIT\MAI\viser\modeling\Datasheet_example\SimmetrCM.sch


 ****     Voltage Controlled Switch MODEL PARAMETERS


******************************************************************************




               X_S1._S1        X_S3._S3        X_S4._S4        X_S2._S2        
         RON    1.000000E-03    1.000000E-03    1.000000E-03    1.000000E-03 
        ROFF    1.000000E+06    1.000000E+06    1.000000E+06    1.000000E+06 
         VON    1               1               1               1            
        VOFF    0               0               0               0            


               sstop25         ssoftd25        
         RON    1               5.000000E+03 
        ROFF  100.000000E+06  100.000000E+06 
         VON   13               1            
        VOFF   12                .7          


**** 05/06/19 23:01:18 ********* PSpice 9.2 (Mar 2000) ******** ID# 1 ********

 * D:\GIT\MAI\viser\modeling\Datasheet_example\SimmetrCM.sch


 ****     Current Controlled Switch MODEL PARAMETERS


******************************************************************************




               X_U1.xoutst.x2.isw25 
         RON    1            
        ROFF  100.000000E+06 
         ION    1.5          
        IOFF    1.3          


**** 05/06/19 23:01:18 ********* PSpice 9.2 (Mar 2000) ******** ID# 1 ********

 * D:\GIT\MAI\viser\modeling\Datasheet_example\SimmetrCM.sch


 ****     Digital Input MODEL PARAMETERS


******************************************************************************




               dincone         DIN74           din74s_o1       
        FILE DSO_DTOA        DSO_DTOA        DSO_DTOA        
      FORMAT    6               6               6            
    TIMESTEP  100.000000E-12  100.000000E-12  100.000000E-12 
         CLO                                    1.000000E-12 
         CHI                                    1.000000E-12 
      S0NAME 0               0               0               
       S0TSW    3.500000E-09    3.500000E-09  100.000000E-12 
       S0RLO    1.000000E+03    7.13             .1          
       S0RHI    1             389              10.000000E+03 
      S1NAME 1               1               1               
       S1TSW    5.500000E-09    5.500000E-09  100.000000E-12 
       S1RLO    1             467             200.000000E+03 
       S1RHI    1.000000E+03  200             200.000000E+03 
      S2NAME X               X               x               
       S2TSW    3.500000E-09    3.500000E-09  100.000000E-12 
       S2RLO   42.9            42.9            34.6          
       S2RHI  116             116              98.4          
      S3NAME R               R               z               
       S3TSW    3.500000E-09    3.500000E-09  100.000000E-12 
       S3RLO   42.9            42.9           200.000000E+03 
       S3RHI  116             116             200.000000E+03 
      S4NAME F               F               R               
       S4TSW    3.500000E-09    3.500000E-09  100.000000E-12 
       S4RLO   42.9            42.9            34.6          
       S4RHI  116             116              98.4          
      S5NAME Z               Z               F               
       S5TSW    3.500000E-09    3.500000E-09  100.000000E-12 
       S5RLO  200.000000E+03  200.000000E+03   34.6          
       S5RHI  200.000000E+03  200.000000E+03   98.4          


**** 05/06/19 23:01:18 ********* PSpice 9.2 (Mar 2000) ******** ID# 1 ********

 * D:\GIT\MAI\viser\modeling\Datasheet_example\SimmetrCM.sch


 ****     Digital Output MODEL PARAMETERS


******************************************************************************




               X_U1.uvl        X_U1.uvlref     X_U1.cmp1825    X_U1.trig1825   
        FILE DSO_ATOD        DSO_ATOD        DSO_ATOD        DSO_ATOD        
      FORMAT    6               6               6               6            
     CHGONLY    1               1               1               1            
    TIMESTEP  100.000000E-12  100.000000E-12  100.000000E-12  100.000000E-12 
      S0NAME 0               0               0               0               
       S0VHI    9.8             4.2                                          
       S0VLO   -5              -1             -35             -35            
      S1NAME 1               1               1               1               
       S1VHI   50              10              70              70            
       S1VLO    9               4                                            


               X_U1.x15.cmp    X_U1.xbl1.x1.compwm             DO74            
        FILE DSO_ATOD        DSO_ATOD                        DSO_ATOD        
      FORMAT    6               6                               6            
     CHGONLY    1               1                               1            
    TIMESTEP  100.000000E-12  100.000000E-12                  100.000000E-12 
      S0NAME 0               0                               X               
       S0VHI                    2            
       S0VLO  -20.000000E+03  -30                                .8          
      S1NAME 1               1                               0               
       S1VHI   20.000000E+03   30                                .8          
       S1VLO                   -1.5          
      S2NAME                 R               
       S2VHI                    1.4          
       S2VLO                     .8          
      S3NAME                 R               
       S3VHI                    2            
       S3VLO                    1.3          
      S4NAME                 X               
       S4VHI                    2            
       S4VLO                     .8          
      S5NAME                 1               
       S5VHI                    7            
       S5VLO                    2            
      S6NAME                 F               
       S6VHI                    2            
       S6VLO                    1.3          
      S7NAME                 F               
       S7VHI                    1.4          
       S7VLO                     .8          


**** 05/06/19 23:01:18 ********* PSpice 9.2 (Mar 2000) ******** ID# 1 ********

 * D:\GIT\MAI\viser\modeling\Datasheet_example\SimmetrCM.sch


 ****     Digital Gate MODEL PARAMETERS


******************************************************************************




               d0_gate         D_PLD_GATE      
      TPLHMN    0               0            
      TPLHTY    0               0            
      TPLHMX    0               0            
      TPHLMN    0               0            
      TPHLTY    0               0            
      TPHLMX    0               0            


**** 05/06/19 23:01:18 ********* PSpice 9.2 (Mar 2000) ******** ID# 1 ********

 * D:\GIT\MAI\viser\modeling\Datasheet_example\SimmetrCM.sch


 ****     Digital Edge Triggered FF MODEL PARAMETERS


******************************************************************************




               d0_eff          
  TPCLKQLHMN    0            
  TPCLKQLHTY    0            
  TPCLKQLHMX    0            
  TPCLKQHLMN    0            
  TPCLKQHLTY    0            
  TPCLKQHLMX    0            
   TPPCQLHMN    0            
   TPPCQLHTY    0            
   TPPCQLHMX    0            
   TPPCQHLMN    0            
   TPPCQHLTY    0            
   TPPCQHLMX    0            
    TWCLKLMN    0            
    TWCLKLTY    0            
    TWCLKLMX    0            
    TWCLKHMN    0            
    TWCLKHTY    0            
    TWCLKHMX    0            
     TWPCLMN    0            
     TWPCLTY    0            
     TWPCLMX    0            
   TSUDCLKMN    0            
   TSUDCLKTY    0            
   TSUDCLKMX    0            
 TSUPCCLKHMN    0            
 TSUPCCLKHTY    0            
 TSUPCCLKHMX    0            
    THDCLKMN    0            
    THDCLKTY    0            
    THDCLKMX    0            
  TSUCECLKMN    0            
  TSUCECLKTY    0            
  TSUCECLKMX    0            
   THCECLKMN    0            
   THCECLKTY    0            
   THCECLKMX    0            


**** 05/06/19 23:01:18 ********* PSpice 9.2 (Mar 2000) ******** ID# 1 ********

 * D:\GIT\MAI\viser\modeling\Datasheet_example\SimmetrCM.sch


 ****     Digital Gated FF MODEL PARAMETERS


******************************************************************************




               d0_gff          
    TPDQLHMN    0            
    TPDQLHTY    0            
    TPDQLHMX    0            
    TPDQHLMN    0            
    TPDQHLTY    0            
    TPDQHLMX    0            
    TPGQLHMN    0            
    TPGQLHTY    0            
    TPGQLHMX    0            
    TPGQHLMN    0            
    TPGQHLTY    0            
    TPGQHLMX    0            
   TPPCQLHMN    0            
   TPPCQLHTY    0            
   TPPCQLHMX    0            
   TPPCQHLMN    0            
   TPPCQHLTY    0            
   TPPCQHLMX    0            
      TWGHMN    0            
      TWGHTY    0            
      TWGHMX    0            
     TWPCLMN    0            
     TWPCLTY    0            
     TWPCLMX    0            
     TSUDGMN    0            
     TSUDGTY    0            
     TSUDGMX    0            
   TSUPCGHMN    0            
   TSUPCGHTY    0            
   TSUPCGHMX    0            
      THDGMN    0            
      THDGTY    0            
      THDGMX    0            


**** 05/06/19 23:01:18 ********* PSpice 9.2 (Mar 2000) ******** ID# 1 ********

 * D:\GIT\MAI\viser\modeling\Datasheet_example\SimmetrCM.sch


 ****     Digital Delay Line MODEL PARAMETERS


******************************************************************************




               X_U1.xlog.dlmod 
       DLYMN    0            
       DLYTY   70.000000E-09 
       DLYMX   70.000000E-09 


**** 05/06/19 23:01:18 ********* PSpice 9.2 (Mar 2000) ******** ID# 1 ********

 * D:\GIT\MAI\viser\modeling\Datasheet_example\SimmetrCM.sch


 ****     Digital IO  MODEL PARAMETERS


******************************************************************************




               io_std          IO_PLD          io_pwm_oc       io_stm          
        DRVL  104                              60.6             0            
        DRVH   96.4                             1.000000E+06    0            
       AtoD1 AtoD_STD                        atod_s                          
       AtoD2 AtoD_STD_NX                     atod_s_nx                       
       AtoD3 AtoD_STD                        atod_s_e                        
       AtoD4 AtoD_STD_NX                     atod_s_nxe                      
       DtoA1 DtoA_STD                        dtoa_s_o1       DtoA_STM        
       DtoA2 DtoA_STD                        dtoa_s_o1       DtoA_STM        
       DtoA3 DtoA_STD                        dtoa_s_o1       DtoA_STM        
       DtoA4 DtoA_STD                        dtoa_s_o1       DtoA_STM        
      TSWHL1    1.511000E-09                                                 
      TSWHL2    1.487000E-09                                                 
      TSWHL3    1.511000E-09                                                 
      TSWHL4    1.487000E-09                                                 
      TSWLH1    3.517000E-09                                                 
      TSWLH2    3.564000E-09                                                 
      TSWLH3    3.517000E-09                                                 
      TSWLH4    3.564000E-09                                                 
       TPWRT  100.000000E+03  100.000000E+03  100.000000E+03  100.000000E+03 


               IO_DFT          io_s_oc         
        DRVL                   60.6          
        DRVH                    1.000000E+06 
       AtoD1 AtoD_STD        AtoD_S          
       AtoD2 AtoD_STD_NX     AtoD_S_NX       
       AtoD3 AtoD_STD        AtoD_S          
       AtoD4 AtoD_STD_NX     AtoD_S_NX       
       DtoA1 DtoA_STD        DtoA_S_OC       
       DtoA2 DtoA_STD        DtoA_S_OC       
       DtoA3 DtoA_STD        DtoA_S_OC       
       DtoA4 DtoA_STD        DtoA_S_OC       
      TSWHL1                    1.305000E-09 
      TSWHL2                    1.306000E-09 
      TSWHL3                    1.305000E-09 
      TSWHL4                    1.306000E-09 
      TSWLH1                  483.000000E-12 
      TSWLH2                  471.000000E-12 
      TSWLH3                  483.000000E-12 
      TSWLH4                  471.000000E-12 
       TPWRT  100.000000E+03  100.000000E+03 


**** 05/06/19 23:01:18 ********* PSpice 9.2 (Mar 2000) ******** ID# 1 ********

 * D:\GIT\MAI\viser\modeling\Datasheet_example\SimmetrCM.sch


 ****     SIMULATION ERRORS


******************************************************************************




DIGITAL Message ID#1 (SERIOUS):
DIGITAL INPUT VOLTAGE Hazard at time 0s
  Device: X_U1.x15.ocmp1
  Voltage V(X_U1.x15.pos_neg,0)=-10.00E+06 is beyond the ranges defined in model X_U1.x15.cmp


DIGITAL Message ID#2 (SERIOUS):
DIGITAL INPUT VOLTAGE Hazard at time 100ps
  Device: X$AA2_AtoD1.O1
  Voltage V(AA2,$G_DGND)= 10.3500 is beyond the ranges defined in model DO74


DIGITAL Message ID#3 (SERIOUS):
DIGITAL INPUT VOLTAGE Hazard at time 150.0743us
  Device: X$AA1_AtoD1.O1
  Voltage V(AA1,$G_DGND)= 7.0092 is beyond the ranges defined in model DO74


DIGITAL Message ID#4 (SERIOUS):
DIGITAL INPUT VOLTAGE Hazard at time 200.0743us
  Device: X$AA2_AtoD1.O1
  Voltage V(AA2,$G_DGND)= 7.0158 is beyond the ranges defined in model DO74


DIGITAL Message ID#5 (SERIOUS):
DIGITAL INPUT VOLTAGE Hazard at time 250.0743us
  Device: X$AA1_AtoD1.O1
  Voltage V(AA1,$G_DGND)= 7.0229 is beyond the ranges defined in model DO74


DIGITAL Message ID#6 (SERIOUS):
DIGITAL INPUT VOLTAGE Hazard at time 300.0743us
  Device: X$AA2_AtoD1.O1
  Voltage V(AA2,$G_DGND)= 7.0057 is beyond the ranges defined in model DO74


DIGITAL Message ID#7 (SERIOUS):
DIGITAL INPUT VOLTAGE Hazard at time 350.0743us
  Device: X$AA1_AtoD1.O1
  Voltage V(AA1,$G_DGND)= 7.0258 is beyond the ranges defined in model DO74


DIGITAL Message ID#8 (SERIOUS):
DIGITAL INPUT VOLTAGE Hazard at time 400.0743us
  Device: X$AA2_AtoD1.O1
  Voltage V(AA2,$G_DGND)= 7.0262 is beyond the ranges defined in model DO74


DIGITAL Message ID#9 (SERIOUS):
DIGITAL INPUT VOLTAGE Hazard at time 450.0742us
  Device: X$AA1_AtoD1.O1
  Voltage V(AA1,$G_DGND)= 7.0254 is beyond the ranges defined in model DO74


DIGITAL Message ID#10 (SERIOUS):
DIGITAL INPUT VOLTAGE Hazard at time 500.0743us
  Device: X$AA2_AtoD1.O1
  Voltage V(AA2,$G_DGND)= 7.0561 is beyond the ranges defined in model DO74


DIGITAL Message ID#11 (SERIOUS):
DIGITAL INPUT VOLTAGE Hazard at time 550.0742us
  Device: X$AA1_AtoD1.O1
  Voltage V(AA1,$G_DGND)= 7.0186 is beyond the ranges defined in model DO74


DIGITAL Message ID#12 (SERIOUS):
DIGITAL INPUT VOLTAGE Hazard at time 600.0742us
  Device: X$AA2_AtoD1.O1
  Voltage V(AA2,$G_DGND)= 7.0218 is beyond the ranges defined in model DO74


DIGITAL Message ID#13 (SERIOUS):
DIGITAL INPUT VOLTAGE Hazard at time 650.0742us
  Device: X$AA1_AtoD1.O1
  Voltage V(AA1,$G_DGND)= 7.0260 is beyond the ranges defined in model DO74


DIGITAL Message ID#14 (SERIOUS):
DIGITAL INPUT VOLTAGE Hazard at time 700.0743us
  Device: X$AA2_AtoD1.O1
  Voltage V(AA2,$G_DGND)= 7.0098 is beyond the ranges defined in model DO74


DIGITAL Message ID#15 (SERIOUS):
DIGITAL INPUT VOLTAGE Hazard at time 750.0743us
  Device: X$AA1_AtoD1.O1
  Voltage V(AA1,$G_DGND)= 7.0259 is beyond the ranges defined in model DO74


DIGITAL Message ID#16 (SERIOUS):
DIGITAL INPUT VOLTAGE Hazard at time 800.0742us
  Device: X$AA2_AtoD1.O1
  Voltage V(AA2,$G_DGND)= 7.0233 is beyond the ranges defined in model DO74


DIGITAL Message ID#17 (SERIOUS):
DIGITAL INPUT VOLTAGE Hazard at time 850.0742us
  Device: X$AA1_AtoD1.O1
  Voltage V(AA1,$G_DGND)= 7.0186 is beyond the ranges defined in model DO74


DIGITAL Message ID#18 (SERIOUS):
DIGITAL INPUT VOLTAGE Hazard at time 900.0742us
  Device: X$AA2_AtoD1.O1
  Voltage V(AA2,$G_DGND)= 7.0233 is beyond the ranges defined in model DO74


DIGITAL Message ID#19 (SERIOUS):
DIGITAL INPUT VOLTAGE Hazard at time 950.0743us
  Device: X$AA1_AtoD1.O1
  Voltage V(AA1,$G_DGND)= 7.0588 is beyond the ranges defined in model DO74


DIGITAL Message ID#20 (SERIOUS):
DIGITAL INPUT VOLTAGE Hazard at time 1.0000742ms
  Device: X$AA2_AtoD1.O1
  Voltage V(AA2,$G_DGND)= 7.0247 is beyond the ranges defined in model DO74


DIGITAL Message ID#21 (SERIOUS):
DIGITAL INPUT VOLTAGE Hazard at time 1.0500742ms
  Device: X$AA1_AtoD1.O1
  Voltage V(AA1,$G_DGND)= 7.0260 is beyond the ranges defined in model DO74


DIGITAL Message ID#22 (SERIOUS):
DIGITAL INPUT VOLTAGE Hazard at time 1.1000743ms
  Device: X$AA2_AtoD1.O1
  Voltage V(AA2,$G_DGND)= 7.0574 is beyond the ranges defined in model DO74


DIGITAL Message ID#23 (SERIOUS):
DIGITAL INPUT VOLTAGE Hazard at time 1.1500743ms
  Device: X$AA1_AtoD1.O1
  Voltage V(AA1,$G_DGND)= 7.0606 is beyond the ranges defined in model DO74


DIGITAL Message ID#24 (SERIOUS):
DIGITAL INPUT VOLTAGE Hazard at time 1.2000742ms
  Device: X$AA2_AtoD1.O1
  Voltage V(AA2,$G_DGND)= 7.0231 is beyond the ranges defined in model DO74


DIGITAL Message ID#25 (SERIOUS):
DIGITAL INPUT VOLTAGE Hazard at time 1.2500742ms
  Device: X$AA1_AtoD1.O1
  Voltage V(AA1,$G_DGND)= 7.0231 is beyond the ranges defined in model DO74


DIGITAL Message ID#26 (SERIOUS):
DIGITAL INPUT VOLTAGE Hazard at time 1.3000742ms
  Device: X$AA2_AtoD1.O1
  Voltage V(AA2,$G_DGND)= 7.0246 is beyond the ranges defined in model DO74


DIGITAL Message ID#27 (SERIOUS):
DIGITAL INPUT VOLTAGE Hazard at time 1.3500743ms
  Device: X$AA1_AtoD1.O1
  Voltage V(AA1,$G_DGND)= 7.0574 is beyond the ranges defined in model DO74


DIGITAL Message ID#28 (SERIOUS):
DIGITAL INPUT VOLTAGE Hazard at time 1.4000743ms
  Device: X$AA2_AtoD1.O1
  Voltage V(AA2,$G_DGND)= 7.0593 is beyond the ranges defined in model DO74


DIGITAL Message ID#29 (SERIOUS):
DIGITAL INPUT VOLTAGE Hazard at time 1.4500742ms
  Device: X$AA1_AtoD1.O1
  Voltage V(AA1,$G_DGND)= 7.0260 is beyond the ranges defined in model DO74


DIGITAL Message ID#30 (SERIOUS):
DIGITAL INPUT VOLTAGE Hazard at time 1.5000742ms
  Device: X$AA2_AtoD1.O1
  Voltage V(AA2,$G_DGND)= 7.0232 is beyond the ranges defined in model DO74


DIGITAL Message ID#31 (SERIOUS):
DIGITAL INPUT VOLTAGE Hazard at time 1.5500743ms
  Device: X$AA1_AtoD1.O1
  Voltage V(AA1,$G_DGND)= 7.0589 is beyond the ranges defined in model DO74


DIGITAL Message ID#32 (SERIOUS):
DIGITAL INPUT VOLTAGE Hazard at time 1.6000743ms
  Device: X$AA2_AtoD1.O1
  Voltage V(AA2,$G_DGND)= 7.0560 is beyond the ranges defined in model DO74


DIGITAL Message ID#33 (SERIOUS):
DIGITAL INPUT VOLTAGE Hazard at time 1.6500743ms
  Device: X$AA1_AtoD1.O1
  Voltage V(AA1,$G_DGND)= 7.0119 is beyond the ranges defined in model DO74


DIGITAL Message ID#34 (SERIOUS):
DIGITAL INPUT VOLTAGE Hazard at time 1.7000743ms
  Device: X$AA2_AtoD1.O1
  Voltage V(AA2,$G_DGND)= 7.0606 is beyond the ranges defined in model DO74


DIGITAL Message ID#35 (SERIOUS):
DIGITAL INPUT VOLTAGE Hazard at time 1.7500743ms
  Device: X$AA1_AtoD1.O1
  Voltage V(AA1,$G_DGND)= 7.0558 is beyond the ranges defined in model DO74


DIGITAL Message ID#36 (SERIOUS):
DIGITAL INPUT VOLTAGE Hazard at time 1.8000742ms
  Device: X$AA2_AtoD1.O1
  Voltage V(AA2,$G_DGND)= 7.0244 is beyond the ranges defined in model DO74


DIGITAL Message ID#37 (SERIOUS):
DIGITAL INPUT VOLTAGE Hazard at time 1.8500742ms
  Device: X$AA1_AtoD1.O1
  Voltage V(AA1,$G_DGND)= 7.0260 is beyond the ranges defined in model DO74


DIGITAL Message ID#38 (SERIOUS):
DIGITAL INPUT VOLTAGE Hazard at time 1.9000743ms
  Device: X$AA2_AtoD1.O1
  Voltage V(AA2,$G_DGND)= 7.0561 is beyond the ranges defined in model DO74


DIGITAL Message ID#39 (SERIOUS):
DIGITAL INPUT VOLTAGE Hazard at time 1.9500742ms
  Device: X$AA1_AtoD1.O1
  Voltage V(AA1,$G_DGND)= 7.0260 is beyond the ranges defined in model DO74


DIGITAL Message ID#40 (SERIOUS):
DIGITAL INPUT VOLTAGE Hazard at time 2.0000742ms
  Device: X$AA2_AtoD1.O1
  Voltage V(AA2,$G_DGND)= 7.0186 is beyond the ranges defined in model DO74


DIGITAL Message ID#41 (SERIOUS):
DIGITAL INPUT VOLTAGE Hazard at time 2.0500742ms
  Device: X$AA1_AtoD1.O1
  Voltage V(AA1,$G_DGND)= 7.0223 is beyond the ranges defined in model DO74


DIGITAL Message ID#42 (SERIOUS):
DIGITAL INPUT VOLTAGE Hazard at time 2.1000742ms
  Device: X$AA2_AtoD1.O1
  Voltage V(AA2,$G_DGND)= 7.0186 is beyond the ranges defined in model DO74


DIGITAL Message ID#43 (SERIOUS):
DIGITAL INPUT VOLTAGE Hazard at time 2.1500743ms
  Device: X$AA1_AtoD1.O1
  Voltage V(AA1,$G_DGND)= 7.0573 is beyond the ranges defined in model DO74


DIGITAL Message ID#44 (SERIOUS):
DIGITAL INPUT VOLTAGE Hazard at time 2.2000741ms
  Device: X$AA2_AtoD1.O1
  Voltage V(AA2,$G_DGND)= 7.0226 is beyond the ranges defined in model DO74


DIGITAL Message ID#45 (SERIOUS):
DIGITAL INPUT VOLTAGE Hazard at time 2.2500742ms
  Device: X$AA1_AtoD1.O1
  Voltage V(AA1,$G_DGND)= 7.0231 is beyond the ranges defined in model DO74


DIGITAL Message ID#46 (SERIOUS):
DIGITAL INPUT VOLTAGE Hazard at time 2.3000742ms
  Device: X$AA2_AtoD1.O1
  Voltage V(AA2,$G_DGND)= 7.0186 is beyond the ranges defined in model DO74


DIGITAL Message ID#47 (SERIOUS):
DIGITAL INPUT VOLTAGE Hazard at time 2.3500742ms
  Device: X$AA1_AtoD1.O1
  Voltage V(AA1,$G_DGND)= 7.0213 is beyond the ranges defined in model DO74


DIGITAL Message ID#48 (SERIOUS):
DIGITAL INPUT VOLTAGE Hazard at time 2.4000742ms
  Device: X$AA2_AtoD1.O1
  Voltage V(AA2,$G_DGND)= 7.0231 is beyond the ranges defined in model DO74


DIGITAL Message ID#49 (SERIOUS):
DIGITAL INPUT VOLTAGE Hazard at time 2.4500743ms
  Device: X$AA1_AtoD1.O1
  Voltage V(AA1,$G_DGND)= 7.0122 is beyond the ranges defined in model DO74


DIGITAL Message ID#50 (SERIOUS):
DIGITAL INPUT VOLTAGE Hazard at time 2.5000742ms
  Device: X$AA2_AtoD1.O1
  Voltage V(AA2,$G_DGND)= 7.0186 is beyond the ranges defined in model DO74


DIGITAL Message ID#51 (SERIOUS):
DIGITAL INPUT VOLTAGE Hazard at time 2.5500742ms
  Device: X$AA1_AtoD1.O1
  Voltage V(AA1,$G_DGND)= 7.0227 is beyond the ranges defined in model DO74


DIGITAL Message ID#52 (SERIOUS):
DIGITAL INPUT VOLTAGE Hazard at time 2.6000742ms
  Device: X$AA2_AtoD1.O1
  Voltage V(AA2,$G_DGND)= 7.0241 is beyond the ranges defined in model DO74


DIGITAL Message ID#53 (SERIOUS):
DIGITAL INPUT VOLTAGE Hazard at time 2.6500742ms
  Device: X$AA1_AtoD1.O1
  Voltage V(AA1,$G_DGND)= 7.0213 is beyond the ranges defined in model DO74


DIGITAL Message ID#54 (SERIOUS):
DIGITAL INPUT VOLTAGE Hazard at time 2.7000743ms
  Device: X$AA2_AtoD1.O1
  Voltage V(AA2,$G_DGND)= 7.0606 is beyond the ranges defined in model DO74


DIGITAL Message ID#55 (SERIOUS):
DIGITAL INPUT VOLTAGE Hazard at time 2.7500743ms
  Device: X$AA1_AtoD1.O1
  Voltage V(AA1,$G_DGND)= 7.0571 is beyond the ranges defined in model DO74


DIGITAL Message ID#56 (SERIOUS):
DIGITAL INPUT VOLTAGE Hazard at time 2.8000742ms
  Device: X$AA2_AtoD1.O1
  Voltage V(AA2,$G_DGND)= 7.0219 is beyond the ranges defined in model DO74


DIGITAL Message ID#57 (SERIOUS):
DIGITAL INPUT VOLTAGE Hazard at time 2.8500743ms
  Device: X$AA1_AtoD1.O1
  Voltage V(AA1,$G_DGND)= 7.0574 is beyond the ranges defined in model DO74


DIGITAL Message ID#58 (SERIOUS):
DIGITAL INPUT VOLTAGE Hazard at time 2.9000742ms
  Device: X$AA2_AtoD1.O1
  Voltage V(AA2,$G_DGND)= 7.0245 is beyond the ranges defined in model DO74


DIGITAL Message ID#59 (SERIOUS):
DIGITAL INPUT VOLTAGE Hazard at time 2.9500743ms
  Device: X$AA1_AtoD1.O1
  Voltage V(AA1,$G_DGND)= 7.0258 is beyond the ranges defined in model DO74


DIGITAL Message ID#60 (SERIOUS):
DIGITAL INPUT VOLTAGE Hazard at time 3.0000743ms
  Device: X$AA2_AtoD1.O1
  Voltage V(AA2,$G_DGND)= 7.0606 is beyond the ranges defined in model DO74


DIGITAL Message ID#61 (SERIOUS):
DIGITAL INPUT VOLTAGE Hazard at time 3.0500742ms
  Device: X$AA1_AtoD1.O1
  Voltage V(AA1,$G_DGND)= 7.0254 is beyond the ranges defined in model DO74


DIGITAL Message ID#62 (SERIOUS):
DIGITAL INPUT VOLTAGE Hazard at time 3.1000742ms
  Device: X$AA2_AtoD1.O1
  Voltage V(AA2,$G_DGND)= 7.0227 is beyond the ranges defined in model DO74


DIGITAL Message ID#63 (SERIOUS):
DIGITAL INPUT VOLTAGE Hazard at time 3.1500742ms
  Device: X$AA1_AtoD1.O1
  Voltage V(AA1,$G_DGND)= 7.0214 is beyond the ranges defined in model DO74


DIGITAL Message ID#64 (SERIOUS):
DIGITAL INPUT VOLTAGE Hazard at time 3.2000742ms
  Device: X$AA2_AtoD1.O1
  Voltage V(AA2,$G_DGND)= 7.0233 is beyond the ranges defined in model DO74


DIGITAL Message ID#65 (SERIOUS):
DIGITAL INPUT VOLTAGE Hazard at time 3.2500742ms
  Device: X$AA1_AtoD1.O1
  Voltage V(AA1,$G_DGND)= 7.0255 is beyond the ranges defined in model DO74


DIGITAL Message ID#66 (SERIOUS):
DIGITAL INPUT VOLTAGE Hazard at time 3.3000743ms
  Device: X$AA2_AtoD1.O1
  Voltage V(AA2,$G_DGND)= 7.0574 is beyond the ranges defined in model DO74


DIGITAL Message ID#67 (SERIOUS):
DIGITAL INPUT VOLTAGE Hazard at time 3.3500742ms
  Device: X$AA1_AtoD1.O1
  Voltage V(AA1,$G_DGND)= 7.0213 is beyond the ranges defined in model DO74


DIGITAL Message ID#68 (SERIOUS):
DIGITAL INPUT VOLTAGE Hazard at time 3.4000744ms
  Device: X$AA2_AtoD1.O1
  Voltage V(AA2,$G_DGND)= 7.0560 is beyond the ranges defined in model DO74


DIGITAL Message ID#69 (SERIOUS):
DIGITAL INPUT VOLTAGE Hazard at time 3.4500742ms
  Device: X$AA1_AtoD1.O1
  Voltage V(AA1,$G_DGND)= 7.0254 is beyond the ranges defined in model DO74


DIGITAL Message ID#70 (SERIOUS):
DIGITAL INPUT VOLTAGE Hazard at time 3.5000743ms
  Device: X$AA2_AtoD1.O1
  Voltage V(AA2,$G_DGND)= 7.0606 is beyond the ranges defined in model DO74


DIGITAL Message ID#71 (SERIOUS):
DIGITAL INPUT VOLTAGE Hazard at time 3.5500742ms
  Device: X$AA1_AtoD1.O1
  Voltage V(AA1,$G_DGND)= 7.0227 is beyond the ranges defined in model DO74


DIGITAL Message ID#72 (SERIOUS):
DIGITAL INPUT VOLTAGE Hazard at time 3.6000742ms
  Device: X$AA2_AtoD1.O1
  Voltage V(AA2,$G_DGND)= 7.0231 is beyond the ranges defined in model DO74


DIGITAL Message ID#73 (SERIOUS):
DIGITAL INPUT VOLTAGE Hazard at time 3.6500742ms
  Device: X$AA1_AtoD1.O1
  Voltage V(AA1,$G_DGND)= 7.0214 is beyond the ranges defined in model DO74


DIGITAL Message ID#74 (SERIOUS):
DIGITAL INPUT VOLTAGE Hazard at time 3.7000742ms
  Device: X$AA2_AtoD1.O1
  Voltage V(AA2,$G_DGND)= 7.0186 is beyond the ranges defined in model DO74


DIGITAL Message ID#75 (SERIOUS):
DIGITAL INPUT VOLTAGE Hazard at time 3.7500742ms
  Device: X$AA1_AtoD1.O1
  Voltage V(AA1,$G_DGND)= 7.0255 is beyond the ranges defined in model DO74


DIGITAL Message ID#76 (SERIOUS):
DIGITAL INPUT VOLTAGE Hazard at time 3.8000742ms
  Device: X$AA2_AtoD1.O1
  Voltage V(AA2,$G_DGND)= 7.0218 is beyond the ranges defined in model DO74


DIGITAL Message ID#77 (SERIOUS):
DIGITAL INPUT VOLTAGE Hazard at time 3.8500743ms
  Device: X$AA1_AtoD1.O1
  Voltage V(AA1,$G_DGND)= 7.0573 is beyond the ranges defined in model DO74


DIGITAL Message ID#78 (SERIOUS):
DIGITAL INPUT VOLTAGE Hazard at time 3.9000742ms
  Device: X$AA2_AtoD1.O1
  Voltage V(AA2,$G_DGND)= 7.0231 is beyond the ranges defined in model DO74


DIGITAL Message ID#79 (SERIOUS):
DIGITAL INPUT VOLTAGE Hazard at time 3.9500742ms
  Device: X$AA1_AtoD1.O1
  Voltage V(AA1,$G_DGND)= 7.0255 is beyond the ranges defined in model DO74


DIGITAL Message ID#80 (SERIOUS):
DIGITAL INPUT VOLTAGE Hazard at time 4.0000742ms
  Device: X$AA2_AtoD1.O1
  Voltage V(AA2,$G_DGND)= 7.0233 is beyond the ranges defined in model DO74


DIGITAL Message ID#81 (SERIOUS):
DIGITAL INPUT VOLTAGE Hazard at time 4.0500743ms
  Device: X$AA1_AtoD1.O1
  Voltage V(AA1,$G_DGND)= 7.0573 is beyond the ranges defined in model DO74


DIGITAL Message ID#82 (SERIOUS):
DIGITAL INPUT VOLTAGE Hazard at time 4.1000742ms
  Device: X$AA2_AtoD1.O1
  Voltage V(AA2,$G_DGND)= 7.0245 is beyond the ranges defined in model DO74


DIGITAL Message ID#83 (SERIOUS):
DIGITAL INPUT VOLTAGE Hazard at time 4.1500742ms
  Device: X$AA1_AtoD1.O1
  Voltage V(AA1,$G_DGND)= 7.0214 is beyond the ranges defined in model DO74


DIGITAL Message ID#84 (SERIOUS):
DIGITAL INPUT VOLTAGE Hazard at time 4.2000742ms
  Device: X$AA2_AtoD1.O1
  Voltage V(AA2,$G_DGND)= 7.0231 is beyond the ranges defined in model DO74


DIGITAL Message ID#85 (SERIOUS):
DIGITAL INPUT VOLTAGE Hazard at time 4.2500742ms
  Device: X$AA1_AtoD1.O1
  Voltage V(AA1,$G_DGND)= 7.0231 is beyond the ranges defined in model DO74


DIGITAL Message ID#86 (SERIOUS):
DIGITAL INPUT VOLTAGE Hazard at time 4.3000744ms
  Device: X$AA2_AtoD1.O1
  Voltage V(AA2,$G_DGND)= 7.0592 is beyond the ranges defined in model DO74


DIGITAL Message ID#87 (SERIOUS):
DIGITAL INPUT VOLTAGE Hazard at time 4.3500742ms
  Device: X$AA1_AtoD1.O1
  Voltage V(AA1,$G_DGND)= 7.0231 is beyond the ranges defined in model DO74


DIGITAL Message ID#88 (SERIOUS):
DIGITAL INPUT VOLTAGE Hazard at time 4.4000742ms
  Device: X$AA2_AtoD1.O1
  Voltage V(AA2,$G_DGND)= 7.0247 is beyond the ranges defined in model DO74


DIGITAL Message ID#89 (SERIOUS):
DIGITAL INPUT VOLTAGE Hazard at time 4.4500743ms
  Device: X$AA1_AtoD1.O1
  Voltage V(AA1,$G_DGND)= 7.0259 is beyond the ranges defined in model DO74


DIGITAL Message ID#90 (SERIOUS):
DIGITAL INPUT VOLTAGE Hazard at time 4.5000742ms
  Device: X$AA2_AtoD1.O1
  Voltage V(AA2,$G_DGND)= 7.0245 is beyond the ranges defined in model DO74


DIGITAL Message ID#91 (SERIOUS):
DIGITAL INPUT VOLTAGE Hazard at time 4.5500742ms
  Device: X$AA1_AtoD1.O1
  Voltage V(AA1,$G_DGND)= 7.0261 is beyond the ranges defined in model DO74


DIGITAL Message ID#92 (SERIOUS):
DIGITAL INPUT VOLTAGE Hazard at time 4.6000744ms
  Device: X$AA2_AtoD1.O1
  Voltage V(AA2,$G_DGND)= 7.0590 is beyond the ranges defined in model DO74


DIGITAL Message ID#93 (SERIOUS):
DIGITAL INPUT VOLTAGE Hazard at time 4.6500742ms
  Device: X$AA1_AtoD1.O1
  Voltage V(AA1,$G_DGND)= 7.0213 is beyond the ranges defined in model DO74


DIGITAL Message ID#94 (SERIOUS):
DIGITAL INPUT VOLTAGE Hazard at time 4.7000742ms
  Device: X$AA2_AtoD1.O1
  Voltage V(AA2,$G_DGND)= 7.0233 is beyond the ranges defined in model DO74


DIGITAL Message ID#95 (SERIOUS):
DIGITAL INPUT VOLTAGE Hazard at time 4.7500742ms
  Device: X$AA1_AtoD1.O1
  Voltage V(AA1,$G_DGND)= 7.0260 is beyond the ranges defined in model DO74


DIGITAL Message ID#96 (SERIOUS):
DIGITAL INPUT VOLTAGE Hazard at time 4.8000742ms
  Device: X$AA2_AtoD1.O1
  Voltage V(AA2,$G_DGND)= 7.0233 is beyond the ranges defined in model DO74


DIGITAL Message ID#97 (SERIOUS):
DIGITAL INPUT VOLTAGE Hazard at time 4.8500742ms
  Device: X$AA1_AtoD1.O1
  Voltage V(AA1,$G_DGND)= 7.0214 is beyond the ranges defined in model DO74


DIGITAL Message ID#98 (SERIOUS):
DIGITAL INPUT VOLTAGE Hazard at time 4.9000743ms
  Device: X$AA2_AtoD1.O1
  Voltage V(AA2,$G_DGND)= 7.0234 is beyond the ranges defined in model DO74


DIGITAL Message ID#99 (SERIOUS):
DIGITAL INPUT VOLTAGE Hazard at time 4.9500742ms
  Device: X$AA1_AtoD1.O1
  Voltage V(AA1,$G_DGND)= 7.0261 is beyond the ranges defined in model DO74


DIGITAL Message ID#100 (SERIOUS):
DIGITAL INPUT VOLTAGE Hazard at time 5.0000742ms
  Device: X$AA2_AtoD1.O1
  Voltage V(AA2,$G_DGND)= 7.0231 is beyond the ranges defined in model DO74


DIGITAL Message ID#101 (SERIOUS):
DIGITAL INPUT VOLTAGE Hazard at time 5.0500742ms
  Device: X$AA1_AtoD1.O1
  Voltage V(AA1,$G_DGND)= 7.0231 is beyond the ranges defined in model DO74


DIGITAL Message ID#102 (SERIOUS):
DIGITAL INPUT VOLTAGE Hazard at time 5.1000742ms
  Device: X$AA2_AtoD1.O1
  Voltage V(AA2,$G_DGND)= 7.0233 is beyond the ranges defined in model DO74


DIGITAL Message ID#103 (SERIOUS):
DIGITAL INPUT VOLTAGE Hazard at time 5.1500742ms
  Device: X$AA1_AtoD1.O1
  Voltage V(AA1,$G_DGND)= 7.0231 is beyond the ranges defined in model DO74


DIGITAL Message ID#104 (SERIOUS):
DIGITAL INPUT VOLTAGE Hazard at time 5.2000742ms
  Device: X$AA2_AtoD1.O1
  Voltage V(AA2,$G_DGND)= 7.0245 is beyond the ranges defined in model DO74


DIGITAL Message ID#105 (SERIOUS):
DIGITAL INPUT VOLTAGE Hazard at time 5.2500742ms
  Device: X$AA1_AtoD1.O1
  Voltage V(AA1,$G_DGND)= 7.0261 is beyond the ranges defined in model DO74


DIGITAL Message ID#106 (SERIOUS):
DIGITAL INPUT VOLTAGE Hazard at time 5.3000743ms
  Device: X$AA2_AtoD1.O1
  Voltage V(AA2,$G_DGND)= 7.0262 is beyond the ranges defined in model DO74


DIGITAL Message ID#107 (SERIOUS):
DIGITAL INPUT VOLTAGE Hazard at time 5.3500742ms
  Device: X$AA1_AtoD1.O1
  Voltage V(AA1,$G_DGND)= 7.0231 is beyond the ranges defined in model DO74


DIGITAL Message ID#108 (SERIOUS):
DIGITAL INPUT VOLTAGE Hazard at time 5.4000742ms
  Device: X$AA2_AtoD1.O1
  Voltage V(AA2,$G_DGND)= 7.0247 is beyond the ranges defined in model DO74


DIGITAL Message ID#109 (SERIOUS):
DIGITAL INPUT VOLTAGE Hazard at time 5.4500742ms
  Device: X$AA1_AtoD1.O1
  Voltage V(AA1,$G_DGND)= 7.0260 is beyond the ranges defined in model DO74


DIGITAL Message ID#110 (SERIOUS):
DIGITAL INPUT VOLTAGE Hazard at time 5.5000742ms
  Device: X$AA2_AtoD1.O1
  Voltage V(AA2,$G_DGND)= 7.0231 is beyond the ranges defined in model DO74


DIGITAL Message ID#111 (SERIOUS):
DIGITAL INPUT VOLTAGE Hazard at time 5.5500742ms
  Device: X$AA1_AtoD1.O1
  Voltage V(AA1,$G_DGND)= 7.0231 is beyond the ranges defined in model DO74


DIGITAL Message ID#112 (SERIOUS):
DIGITAL INPUT VOLTAGE Hazard at time 5.6000743ms
  Device: X$AA2_AtoD1.O1
  Voltage V(AA2,$G_DGND)= 7.0232 is beyond the ranges defined in model DO74


DIGITAL Message ID#113 (SERIOUS):
DIGITAL INPUT VOLTAGE Hazard at time 5.6500742ms
  Device: X$AA1_AtoD1.O1
  Voltage V(AA1,$G_DGND)= 7.0254 is beyond the ranges defined in model DO74


DIGITAL Message ID#114 (SERIOUS):
DIGITAL INPUT VOLTAGE Hazard at time 5.7000742ms
  Device: X$AA2_AtoD1.O1
  Voltage V(AA2,$G_DGND)= 7.0247 is beyond the ranges defined in model DO74


DIGITAL Message ID#115 (SERIOUS):
DIGITAL INPUT VOLTAGE Hazard at time 5.7500743ms
  Device: X$AA1_AtoD1.O1
  Voltage V(AA1,$G_DGND)= 7.0259 is beyond the ranges defined in model DO74


DIGITAL Message ID#116 (SERIOUS):
DIGITAL INPUT VOLTAGE Hazard at time 5.8000742ms
  Device: X$AA2_AtoD1.O1
  Voltage V(AA2,$G_DGND)= 7.0245 is beyond the ranges defined in model DO74


DIGITAL Message ID#117 (SERIOUS):
DIGITAL INPUT VOLTAGE Hazard at time 5.8500742ms
  Device: X$AA1_AtoD1.O1
  Voltage V(AA1,$G_DGND)= 7.0232 is beyond the ranges defined in model DO74


DIGITAL Message ID#118 (SERIOUS):
DIGITAL INPUT VOLTAGE Hazard at time 5.9000743ms
  Device: X$AA2_AtoD1.O1
  Voltage V(AA2,$G_DGND)= 7.0574 is beyond the ranges defined in model DO74


DIGITAL Message ID#119 (SERIOUS):
DIGITAL INPUT VOLTAGE Hazard at time 5.9500742ms
  Device: X$AA1_AtoD1.O1
  Voltage V(AA1,$G_DGND)= 7.0231 is beyond the ranges defined in model DO74


DIGITAL Message ID#120 (SERIOUS):
DIGITAL INPUT VOLTAGE Hazard at time 6.0000742ms
  Device: X$AA2_AtoD1.O1
  Voltage V(AA2,$G_DGND)= 7.0246 is beyond the ranges defined in model DO74


DIGITAL Message ID#121 (SERIOUS):
DIGITAL INPUT VOLTAGE Hazard at time 6.0500742ms
  Device: X$AA1_AtoD1.O1
  Voltage V(AA1,$G_DGND)= 7.0213 is beyond the ranges defined in model DO74


DIGITAL Message ID#122 (SERIOUS):
DIGITAL INPUT VOLTAGE Hazard at time 6.1000742ms
  Device: X$AA2_AtoD1.O1
  Voltage V(AA2,$G_DGND)= 7.0247 is beyond the ranges defined in model DO74


DIGITAL Message ID#123 (SERIOUS):
DIGITAL INPUT VOLTAGE Hazard at time 6.1500742ms
  Device: X$AA1_AtoD1.O1
  Voltage V(AA1,$G_DGND)= 7.0231 is beyond the ranges defined in model DO74


DIGITAL Message ID#124 (SERIOUS):
DIGITAL INPUT VOLTAGE Hazard at time 6.2000742ms
  Device: X$AA2_AtoD1.O1
  Voltage V(AA2,$G_DGND)= 7.0246 is beyond the ranges defined in model DO74


DIGITAL Message ID#125 (SERIOUS):
DIGITAL INPUT VOLTAGE Hazard at time 6.2500742ms
  Device: X$AA1_AtoD1.O1
  Voltage V(AA1,$G_DGND)= 7.0231 is beyond the ranges defined in model DO74


DIGITAL Message ID#126 (SERIOUS):
DIGITAL INPUT VOLTAGE Hazard at time 6.3000743ms
  Device: X$AA2_AtoD1.O1
  Voltage V(AA2,$G_DGND)= 7.0232 is beyond the ranges defined in model DO74


DIGITAL Message ID#127 (SERIOUS):
DIGITAL INPUT VOLTAGE Hazard at time 6.3500742ms
  Device: X$AA1_AtoD1.O1
  Voltage V(AA1,$G_DGND)= 7.0254 is beyond the ranges defined in model DO74


DIGITAL Message ID#128 (SERIOUS):
DIGITAL INPUT VOLTAGE Hazard at time 6.4000742ms
  Device: X$AA2_AtoD1.O1
  Voltage V(AA2,$G_DGND)= 7.0247 is beyond the ranges defined in model DO74


DIGITAL Message ID#129 (SERIOUS):
DIGITAL INPUT VOLTAGE Hazard at time 6.4500742ms
  Device: X$AA1_AtoD1.O1
  Voltage V(AA1,$G_DGND)= 7.0260 is beyond the ranges defined in model DO74


DIGITAL Message ID#130 (SERIOUS):
DIGITAL INPUT VOLTAGE Hazard at time 6.5000742ms
  Device: X$AA2_AtoD1.O1
  Voltage V(AA2,$G_DGND)= 7.0233 is beyond the ranges defined in model DO74


DIGITAL Message ID#131 (SERIOUS):
DIGITAL INPUT VOLTAGE Hazard at time 6.5500742ms
  Device: X$AA1_AtoD1.O1
  Voltage V(AA1,$G_DGND)= 7.0254 is beyond the ranges defined in model DO74


DIGITAL Message ID#132 (SERIOUS):
DIGITAL INPUT VOLTAGE Hazard at time 6.6000743ms
  Device: X$AA2_AtoD1.O1
  Voltage V(AA2,$G_DGND)= 7.0262 is beyond the ranges defined in model DO74


DIGITAL Message ID#133 (SERIOUS):
DIGITAL INPUT VOLTAGE Hazard at time 6.6500742ms
  Device: X$AA1_AtoD1.O1
  Voltage V(AA1,$G_DGND)= 7.0231 is beyond the ranges defined in model DO74


DIGITAL Message ID#134 (SERIOUS):
DIGITAL INPUT VOLTAGE Hazard at time 6.7000742ms
  Device: X$AA2_AtoD1.O1
  Voltage V(AA2,$G_DGND)= 7.0231 is beyond the ranges defined in model DO74


DIGITAL Message ID#135 (SERIOUS):
DIGITAL INPUT VOLTAGE Hazard at time 6.7500743ms
  Device: X$AA1_AtoD1.O1
  Voltage V(AA1,$G_DGND)= 7.0573 is beyond the ranges defined in model DO74


DIGITAL Message ID#136 (SERIOUS):
DIGITAL INPUT VOLTAGE Hazard at time 6.8000742ms
  Device: X$AA2_AtoD1.O1
  Voltage V(AA2,$G_DGND)= 7.0247 is beyond the ranges defined in model DO74


DIGITAL Message ID#137 (SERIOUS):
DIGITAL INPUT VOLTAGE Hazard at time 6.8500742ms
  Device: X$AA1_AtoD1.O1
  Voltage V(AA1,$G_DGND)= 7.0231 is beyond the ranges defined in model DO74


DIGITAL Message ID#138 (SERIOUS):
DIGITAL INPUT VOLTAGE Hazard at time 6.9000742ms
  Device: X$AA2_AtoD1.O1
  Voltage V(AA2,$G_DGND)= 7.0233 is beyond the ranges defined in model DO74


DIGITAL Message ID#139 (SERIOUS):
DIGITAL INPUT VOLTAGE Hazard at time 6.9500742ms
  Device: X$AA1_AtoD1.O1
  Voltage V(AA1,$G_DGND)= 7.0250 is beyond the ranges defined in model DO74


DIGITAL Message ID#140 (SERIOUS):
DIGITAL INPUT VOLTAGE Hazard at time 7.0000743ms
  Device: X$AA2_AtoD1.O1
  Voltage V(AA2,$G_DGND)= 7.0232 is beyond the ranges defined in model DO74


DIGITAL Message ID#141 (SERIOUS):
DIGITAL INPUT VOLTAGE Hazard at time 7.0500742ms
  Device: X$AA1_AtoD1.O1
  Voltage V(AA1,$G_DGND)= 7.0231 is beyond the ranges defined in model DO74


DIGITAL Message ID#142 (SERIOUS):
DIGITAL INPUT VOLTAGE Hazard at time 7.1000742ms
  Device: X$AA2_AtoD1.O1
  Voltage V(AA2,$G_DGND)= 7.0185 is beyond the ranges defined in model DO74


DIGITAL Message ID#143 (SERIOUS):
DIGITAL INPUT VOLTAGE Hazard at time 7.1500742ms
  Device: X$AA1_AtoD1.O1
  Voltage V(AA1,$G_DGND)= 7.0260 is beyond the ranges defined in model DO74


DIGITAL Message ID#144 (SERIOUS):
DIGITAL INPUT VOLTAGE Hazard at time 7.2000742ms
  Device: X$AA2_AtoD1.O1
  Voltage V(AA2,$G_DGND)= 7.0245 is beyond the ranges defined in model DO74


DIGITAL Message ID#145 (SERIOUS):
DIGITAL INPUT VOLTAGE Hazard at time 7.2500742ms
  Device: X$AA1_AtoD1.O1
  Voltage V(AA1,$G_DGND)= 7.0255 is beyond the ranges defined in model DO74


DIGITAL Message ID#146 (SERIOUS):
DIGITAL INPUT VOLTAGE Hazard at time 7.3000743ms
  Device: X$AA2_AtoD1.O1
  Voltage V(AA2,$G_DGND)= 7.0262 is beyond the ranges defined in model DO74


DIGITAL Message ID#147 (SERIOUS):
DIGITAL INPUT VOLTAGE Hazard at time 7.3500742ms
  Device: X$AA1_AtoD1.O1
  Voltage V(AA1,$G_DGND)= 7.0254 is beyond the ranges defined in model DO74


DIGITAL Message ID#148 (SERIOUS):
DIGITAL INPUT VOLTAGE Hazard at time 7.4000742ms
  Device: X$AA2_AtoD1.O1
  Voltage V(AA2,$G_DGND)= 7.0246 is beyond the ranges defined in model DO74


DIGITAL Message ID#149 (SERIOUS):
DIGITAL INPUT VOLTAGE Hazard at time 7.4500742ms
  Device: X$AA1_AtoD1.O1
  Voltage V(AA1,$G_DGND)= 7.0260 is beyond the ranges defined in model DO74


DIGITAL Message ID#150 (SERIOUS):
DIGITAL INPUT VOLTAGE Hazard at time 7.5000742ms
  Device: X$AA2_AtoD1.O1
  Voltage V(AA2,$G_DGND)= 7.0233 is beyond the ranges defined in model DO74


DIGITAL Message ID#151 (SERIOUS):
DIGITAL INPUT VOLTAGE Hazard at time 7.5500742ms
  Device: X$AA1_AtoD1.O1
  Voltage V(AA1,$G_DGND)= 7.0254 is beyond the ranges defined in model DO74


DIGITAL Message ID#152 (SERIOUS):
DIGITAL INPUT VOLTAGE Hazard at time 7.6000743ms
  Device: X$AA2_AtoD1.O1
  Voltage V(AA2,$G_DGND)= 7.0230 is beyond the ranges defined in model DO74


DIGITAL Message ID#153 (SERIOUS):
DIGITAL INPUT VOLTAGE Hazard at time 7.6500742ms
  Device: X$AA1_AtoD1.O1
  Voltage V(AA1,$G_DGND)= 7.0231 is beyond the ranges defined in model DO74


DIGITAL Message ID#154 (SERIOUS):
DIGITAL INPUT VOLTAGE Hazard at time 7.7000742ms
  Device: X$AA2_AtoD1.O1
  Voltage V(AA2,$G_DGND)= 7.0245 is beyond the ranges defined in model DO74


DIGITAL Message ID#155 (SERIOUS):
DIGITAL INPUT VOLTAGE Hazard at time 7.7500743ms
  Device: X$AA1_AtoD1.O1
  Voltage V(AA1,$G_DGND)= 7.0602 is beyond the ranges defined in model DO74


DIGITAL Message ID#156 (SERIOUS):
DIGITAL INPUT VOLTAGE Hazard at time 7.8000742ms
  Device: X$AA2_AtoD1.O1
  Voltage V(AA2,$G_DGND)= 7.0245 is beyond the ranges defined in model DO74


DIGITAL Message ID#157 (SERIOUS):
DIGITAL INPUT VOLTAGE Hazard at time 7.8500743ms
  Device: X$AA1_AtoD1.O1
  Voltage V(AA1,$G_DGND)= 7.0091 is beyond the ranges defined in model DO74


DIGITAL Message ID#158 (SERIOUS):
DIGITAL INPUT VOLTAGE Hazard at time 7.9000743ms
  Device: X$AA2_AtoD1.O1
  Voltage V(AA2,$G_DGND)= 7.0078 is beyond the ranges defined in model DO74


DIGITAL Message ID#159 (SERIOUS):
DIGITAL INPUT VOLTAGE Hazard at time 7.9500743ms
  Device: X$AA1_AtoD1.O1
  Voltage V(AA1,$G_DGND)= 7.0132 is beyond the ranges defined in model DO74


DIGITAL Message ID#160 (SERIOUS):
DIGITAL INPUT VOLTAGE Hazard at time 8.0000743ms
  Device: X$AA2_AtoD1.O1
  Voltage V(AA2,$G_DGND)= 7.0110 is beyond the ranges defined in model DO74


DIGITAL Message ID#161 (SERIOUS):
DIGITAL INPUT VOLTAGE Hazard at time 8.0500743ms
  Device: X$AA1_AtoD1.O1
  Voltage V(AA1,$G_DGND)= 7.0092 is beyond the ranges defined in model DO74


DIGITAL Message ID#162 (SERIOUS):
DIGITAL INPUT VOLTAGE Hazard at time 8.1000742ms
  Device: X$AA2_AtoD1.O1
  Voltage V(AA2,$G_DGND)= 7.0240 is beyond the ranges defined in model DO74


DIGITAL Message ID#163 (SERIOUS):
DIGITAL INPUT VOLTAGE Hazard at time 8.1500743ms
  Device: X$AA1_AtoD1.O1
  Voltage V(AA1,$G_DGND)= 7.0090 is beyond the ranges defined in model DO74


DIGITAL Message ID#164 (SERIOUS):
DIGITAL INPUT VOLTAGE Hazard at time 8.2000743ms
  Device: X$AA2_AtoD1.O1
  Voltage V(AA2,$G_DGND)= 7.0110 is beyond the ranges defined in model DO74


DIGITAL Message ID#165 (SERIOUS):
DIGITAL INPUT VOLTAGE Hazard at time 8.2500743ms
  Device: X$AA1_AtoD1.O1
  Voltage V(AA1,$G_DGND)= 7.0091 is beyond the ranges defined in model DO74


DIGITAL Message ID#166 (SERIOUS):
DIGITAL INPUT VOLTAGE Hazard at time 8.3000743ms
  Device: X$AA2_AtoD1.O1
  Voltage V(AA2,$G_DGND)= 7.0232 is beyond the ranges defined in model DO74


DIGITAL Message ID#167 (SERIOUS):
DIGITAL INPUT VOLTAGE Hazard at time 8.3500743ms
  Device: X$AA1_AtoD1.O1
  Voltage V(AA1,$G_DGND)= 7.0116 is beyond the ranges defined in model DO74


DIGITAL Message ID#168 (SERIOUS):
DIGITAL INPUT VOLTAGE Hazard at time 8.4000743ms
  Device: X$AA2_AtoD1.O1
  Voltage V(AA2,$G_DGND)= 7.0138 is beyond the ranges defined in model DO74


DIGITAL Message ID#169 (SERIOUS):
DIGITAL INPUT VOLTAGE Hazard at time 8.4500743ms
  Device: X$AA1_AtoD1.O1
  Voltage V(AA1,$G_DGND)= 7.0091 is beyond the ranges defined in model DO74


DIGITAL Message ID#170 (SERIOUS):
DIGITAL INPUT VOLTAGE Hazard at time 8.5000743ms
  Device: X$AA2_AtoD1.O1
  Voltage V(AA2,$G_DGND)= 7.0140 is beyond the ranges defined in model DO74


DIGITAL Message ID#171 (SERIOUS):
DIGITAL INPUT VOLTAGE Hazard at time 8.5500743ms
  Device: X$AA1_AtoD1.O1
  Voltage V(AA1,$G_DGND)= 7.0116 is beyond the ranges defined in model DO74


DIGITAL Message ID#172 (SERIOUS):
DIGITAL INPUT VOLTAGE Hazard at time 8.6000743ms
  Device: X$AA2_AtoD1.O1
  Voltage V(AA2,$G_DGND)= 7.0110 is beyond the ranges defined in model DO74


DIGITAL Message ID#173 (SERIOUS):
DIGITAL INPUT VOLTAGE Hazard at time 8.6500742ms
  Device: X$AA1_AtoD1.O1
  Voltage V(AA1,$G_DGND)= 7.0185 is beyond the ranges defined in model DO74


DIGITAL Message ID#174 (SERIOUS):
DIGITAL INPUT VOLTAGE Hazard at time 8.7000743ms
  Device: X$AA2_AtoD1.O1
  Voltage V(AA2,$G_DGND)= 7.0231 is beyond the ranges defined in model DO74


DIGITAL Message ID#175 (SERIOUS):
DIGITAL INPUT VOLTAGE Hazard at time 8.7500742ms
  Device: X$AA1_AtoD1.O1
  Voltage V(AA1,$G_DGND)= 7.0185 is beyond the ranges defined in model DO74


DIGITAL Message ID#176 (SERIOUS):
DIGITAL INPUT VOLTAGE Hazard at time 8.8000743ms
  Device: X$AA2_AtoD1.O1
  Voltage V(AA2,$G_DGND)= 7.0232 is beyond the ranges defined in model DO74


DIGITAL Message ID#177 (SERIOUS):
DIGITAL INPUT VOLTAGE Hazard at time 8.8500743ms
  Device: X$AA1_AtoD1.O1
  Voltage V(AA1,$G_DGND)= 7.0116 is beyond the ranges defined in model DO74


DIGITAL Message ID#178 (SERIOUS):
DIGITAL INPUT VOLTAGE Hazard at time 8.9000742ms
  Device: X$AA2_AtoD1.O1
  Voltage V(AA2,$G_DGND)= 7.0184 is beyond the ranges defined in model DO74


DIGITAL Message ID#179 (SERIOUS):
DIGITAL INPUT VOLTAGE Hazard at time 8.9500742ms
  Device: X$AA1_AtoD1.O1
  Voltage V(AA1,$G_DGND)= 7.0214 is beyond the ranges defined in model DO74


DIGITAL Message ID#180 (SERIOUS):
DIGITAL INPUT VOLTAGE Hazard at time 9.0000742ms
  Device: X$AA2_AtoD1.O1
  Voltage V(AA2,$G_DGND)= 7.0218 is beyond the ranges defined in model DO74


DIGITAL Message ID#181 (SERIOUS):
DIGITAL INPUT VOLTAGE Hazard at time 9.0500743ms
  Device: X$AA1_AtoD1.O1
  Voltage V(AA1,$G_DGND)= 7.0116 is beyond the ranges defined in model DO74


DIGITAL Message ID#182 (SERIOUS):
DIGITAL INPUT VOLTAGE Hazard at time 9.1000743ms
  Device: X$AA2_AtoD1.O1
  Voltage V(AA2,$G_DGND)= 7.0110 is beyond the ranges defined in model DO74


DIGITAL Message ID#183 (SERIOUS):
DIGITAL INPUT VOLTAGE Hazard at time 9.1500743ms
  Device: X$AA1_AtoD1.O1
  Voltage V(AA1,$G_DGND)= 7.0091 is beyond the ranges defined in model DO74


DIGITAL Message ID#184 (SERIOUS):
DIGITAL INPUT VOLTAGE Hazard at time 9.2000743ms
  Device: X$AA2_AtoD1.O1
  Voltage V(AA2,$G_DGND)= 7.0138 is beyond the ranges defined in model DO74


DIGITAL Message ID#185 (SERIOUS):
DIGITAL INPUT VOLTAGE Hazard at time 9.2500743ms
  Device: X$AA1_AtoD1.O1
  Voltage V(AA1,$G_DGND)= 7.0091 is beyond the ranges defined in model DO74


DIGITAL Message ID#186 (SERIOUS):
DIGITAL INPUT VOLTAGE Hazard at time 9.3000743ms
  Device: X$AA2_AtoD1.O1
  Voltage V(AA2,$G_DGND)= 7.0141 is beyond the ranges defined in model DO74


DIGITAL Message ID#187 (SERIOUS):
DIGITAL INPUT VOLTAGE Hazard at time 9.3500742ms
  Device: X$AA1_AtoD1.O1
  Voltage V(AA1,$G_DGND)= 7.0185 is beyond the ranges defined in model DO74


DIGITAL Message ID#188 (SERIOUS):
DIGITAL INPUT VOLTAGE Hazard at time 9.4000743ms
  Device: X$AA2_AtoD1.O1
  Voltage V(AA2,$G_DGND)= 7.0110 is beyond the ranges defined in model DO74


DIGITAL Message ID#189 (SERIOUS):
DIGITAL INPUT VOLTAGE Hazard at time 9.4500743ms
  Device: X$AA1_AtoD1.O1
  Voltage V(AA1,$G_DGND)= 7.0132 is beyond the ranges defined in model DO74


DIGITAL Message ID#190 (SERIOUS):
DIGITAL INPUT VOLTAGE Hazard at time 9.5000743ms
  Device: X$AA2_AtoD1.O1
  Voltage V(AA2,$G_DGND)= 7.0143 is beyond the ranges defined in model DO74


DIGITAL Message ID#191 (SERIOUS):
DIGITAL INPUT VOLTAGE Hazard at time 9.5500743ms
  Device: X$AA1_AtoD1.O1
  Voltage V(AA1,$G_DGND)= 7.0091 is beyond the ranges defined in model DO74


DIGITAL Message ID#192 (SERIOUS):
DIGITAL INPUT VOLTAGE Hazard at time 9.6000743ms
  Device: X$AA2_AtoD1.O1
  Voltage V(AA2,$G_DGND)= 7.0111 is beyond the ranges defined in model DO74


DIGITAL Message ID#193 (SERIOUS):
DIGITAL INPUT VOLTAGE Hazard at time 9.6500743ms
  Device: X$AA1_AtoD1.O1
  Voltage V(AA1,$G_DGND)= 7.0091 is beyond the ranges defined in model DO74


DIGITAL Message ID#194 (SERIOUS):
DIGITAL INPUT VOLTAGE Hazard at time 9.7000743ms
  Device: X$AA2_AtoD1.O1
  Voltage V(AA2,$G_DGND)= 7.0140 is beyond the ranges defined in model DO74


DIGITAL Message ID#195 (SERIOUS):
DIGITAL INPUT VOLTAGE Hazard at time 9.7500743ms
  Device: X$AA1_AtoD1.O1
  Voltage V(AA1,$G_DGND)= 7.0091 is beyond the ranges defined in model DO74


DIGITAL Message ID#196 (SERIOUS):
DIGITAL INPUT VOLTAGE Hazard at time 9.8000742ms
  Device: X$AA2_AtoD1.O1
  Voltage V(AA2,$G_DGND)= 7.0227 is beyond the ranges defined in model DO74


DIGITAL Message ID#197 (SERIOUS):
DIGITAL INPUT VOLTAGE Hazard at time 9.8500743ms
  Device: X$AA1_AtoD1.O1
  Voltage V(AA1,$G_DGND)= 7.0091 is beyond the ranges defined in model DO74


DIGITAL Message ID#198 (SERIOUS):
DIGITAL INPUT VOLTAGE Hazard at time 9.9000743ms
  Device: X$AA2_AtoD1.O1
  Voltage V(AA2,$G_DGND)= 7.0111 is beyond the ranges defined in model DO74


DIGITAL Message ID#199 (SERIOUS):
DIGITAL INPUT VOLTAGE Hazard at time 9.9500742ms
  Device: X$AA1_AtoD1.O1
  Voltage V(AA1,$G_DGND)= 7.0185 is beyond the ranges defined in model DO74


DIGITAL Message ID#200 (SERIOUS):
DIGITAL INPUT VOLTAGE Hazard at time 10.0000743ms
  Device: X$AA2_AtoD1.O1
  Voltage V(AA2,$G_DGND)= 7.0140 is beyond the ranges defined in model DO74


DIGITAL Message ID#201 (SERIOUS):
DIGITAL INPUT VOLTAGE Hazard at time 10.0500742ms
  Device: X$AA1_AtoD1.O1
  Voltage V(AA1,$G_DGND)= 7.0185 is beyond the ranges defined in model DO74


DIGITAL Message ID#202 (SERIOUS):
DIGITAL INPUT VOLTAGE Hazard at time 10.1000743ms
  Device: X$AA2_AtoD1.O1
  Voltage V(AA2,$G_DGND)= 7.0111 is beyond the ranges defined in model DO74


DIGITAL Message ID#203 (SERIOUS):
DIGITAL INPUT VOLTAGE Hazard at time 10.1500743ms
  Device: X$AA1_AtoD1.O1
  Voltage V(AA1,$G_DGND)= 7.0117 is beyond the ranges defined in model DO74


DIGITAL Message ID#204 (SERIOUS):
DIGITAL INPUT VOLTAGE Hazard at time 10.2000743ms
  Device: X$AA2_AtoD1.O1
  Voltage V(AA2,$G_DGND)= 7.0091 is beyond the ranges defined in model DO74


DIGITAL Message ID#205 (SERIOUS):
DIGITAL INPUT VOLTAGE Hazard at time 10.2500742ms
  Device: X$AA1_AtoD1.O1
  Voltage V(AA1,$G_DGND)= 7.0261 is beyond the ranges defined in model DO74


DIGITAL Message ID#206 (SERIOUS):
DIGITAL INPUT VOLTAGE Hazard at time 10.3000743ms
  Device: X$AA2_AtoD1.O1
  Voltage V(AA2,$G_DGND)= 7.0111 is beyond the ranges defined in model DO74


DIGITAL Message ID#207 (SERIOUS):
DIGITAL INPUT VOLTAGE Hazard at time 10.3500742ms
  Device: X$AA1_AtoD1.O1
  Voltage V(AA1,$G_DGND)= 7.0184 is beyond the ranges defined in model DO74


DIGITAL Message ID#208 (SERIOUS):
DIGITAL INPUT VOLTAGE Hazard at time 10.4000743ms
  Device: X$AA2_AtoD1.O1
  Voltage V(AA2,$G_DGND)= 7.0121 is beyond the ranges defined in model DO74


DIGITAL Message ID#209 (SERIOUS):
DIGITAL INPUT VOLTAGE Hazard at time 10.4500743ms
  Device: X$AA1_AtoD1.O1
  Voltage V(AA1,$G_DGND)= 7.0087 is beyond the ranges defined in model DO74


DIGITAL Message ID#210 (SERIOUS):
DIGITAL INPUT VOLTAGE Hazard at time 10.5000743ms
  Device: X$AA2_AtoD1.O1
  Voltage V(AA2,$G_DGND)= 7.0111 is beyond the ranges defined in model DO74


DIGITAL Message ID#211 (SERIOUS):
DIGITAL INPUT VOLTAGE Hazard at time 10.5500743ms
  Device: X$AA1_AtoD1.O1
  Voltage V(AA1,$G_DGND)= 7.0116 is beyond the ranges defined in model DO74


DIGITAL Message ID#212 (SERIOUS):
DIGITAL INPUT VOLTAGE Hazard at time 10.6000743ms
  Device: X$AA2_AtoD1.O1
  Voltage V(AA2,$G_DGND)= 7.0140 is beyond the ranges defined in model DO74


DIGITAL Message ID#213 (SERIOUS):
DIGITAL INPUT VOLTAGE Hazard at time 10.6500743ms
  Device: X$AA1_AtoD1.O1
  Voltage V(AA1,$G_DGND)= 7.0092 is beyond the ranges defined in model DO74


DIGITAL Message ID#214 (SERIOUS):
DIGITAL INPUT VOLTAGE Hazard at time 10.7000743ms
  Device: X$AA2_AtoD1.O1
  Voltage V(AA2,$G_DGND)= 7.0120 is beyond the ranges defined in model DO74


DIGITAL Message ID#215 (SERIOUS):
DIGITAL INPUT VOLTAGE Hazard at time 10.7500743ms
  Device: X$AA1_AtoD1.O1
  Voltage V(AA1,$G_DGND)= 7.0086 is beyond the ranges defined in model DO74


DIGITAL Message ID#216 (SERIOUS):
DIGITAL INPUT VOLTAGE Hazard at time 10.8000743ms
  Device: X$AA2_AtoD1.O1
  Voltage V(AA2,$G_DGND)= 7.0110 is beyond the ranges defined in model DO74


DIGITAL Message ID#217 (SERIOUS):
DIGITAL INPUT VOLTAGE Hazard at time 10.8500743ms
  Device: X$AA1_AtoD1.O1
  Voltage V(AA1,$G_DGND)= 7.0113 is beyond the ranges defined in model DO74


DIGITAL Message ID#218 (SERIOUS):
DIGITAL INPUT VOLTAGE Hazard at time 10.9000743ms
  Device: X$AA2_AtoD1.O1
  Voltage V(AA2,$G_DGND)= 7.0262 is beyond the ranges defined in model DO74


DIGITAL Message ID#219 (SERIOUS):
DIGITAL INPUT VOLTAGE Hazard at time 10.9500742ms
  Device: X$AA1_AtoD1.O1
  Voltage V(AA1,$G_DGND)= 7.0227 is beyond the ranges defined in model DO74


DIGITAL Message ID#220 (SERIOUS):
DIGITAL INPUT VOLTAGE Hazard at time 11.0000743ms
  Device: X$AA2_AtoD1.O1
  Voltage V(AA2,$G_DGND)= 7.0140 is beyond the ranges defined in model DO74


DIGITAL Message ID#221 (SERIOUS):
DIGITAL INPUT VOLTAGE Hazard at time 11.0500743ms
  Device: X$AA1_AtoD1.O1
  Voltage V(AA1,$G_DGND)= 7.0091 is beyond the ranges defined in model DO74


DIGITAL Message ID#222 (SERIOUS):
DIGITAL INPUT VOLTAGE Hazard at time 11.1000743ms
  Device: X$AA2_AtoD1.O1
  Voltage V(AA2,$G_DGND)= 7.0111 is beyond the ranges defined in model DO74


DIGITAL Message ID#223 (SERIOUS):
DIGITAL INPUT VOLTAGE Hazard at time 11.1500743ms
  Device: X$AA1_AtoD1.O1
  Voltage V(AA1,$G_DGND)= 7.0091 is beyond the ranges defined in model DO74


DIGITAL Message ID#224 (SERIOUS):
DIGITAL INPUT VOLTAGE Hazard at time 11.2000743ms
  Device: X$AA2_AtoD1.O1
  Voltage V(AA2,$G_DGND)= 7.0110 is beyond the ranges defined in model DO74


DIGITAL Message ID#225 (SERIOUS):
DIGITAL INPUT VOLTAGE Hazard at time 11.2500743ms
  Device: X$AA1_AtoD1.O1
  Voltage V(AA1,$G_DGND)= 7.0116 is beyond the ranges defined in model DO74


DIGITAL Message ID#226 (SERIOUS):
DIGITAL INPUT VOLTAGE Hazard at time 11.3000743ms
  Device: X$AA2_AtoD1.O1
  Voltage V(AA2,$G_DGND)= 7.0110 is beyond the ranges defined in model DO74


DIGITAL Message ID#227 (SERIOUS):
DIGITAL INPUT VOLTAGE Hazard at time 11.3500743ms
  Device: X$AA1_AtoD1.O1
  Voltage V(AA1,$G_DGND)= 7.0091 is beyond the ranges defined in model DO74


DIGITAL Message ID#228 (SERIOUS):
DIGITAL INPUT VOLTAGE Hazard at time 11.4000743ms
  Device: X$AA2_AtoD1.O1
  Voltage V(AA2,$G_DGND)= 7.0110 is beyond the ranges defined in model DO74


DIGITAL Message ID#229 (SERIOUS):
DIGITAL INPUT VOLTAGE Hazard at time 11.4500743ms
  Device: X$AA1_AtoD1.O1
  Voltage V(AA1,$G_DGND)= 7.0091 is beyond the ranges defined in model DO74


DIGITAL Message ID#230 (SERIOUS):
DIGITAL INPUT VOLTAGE Hazard at time 11.5000742ms
  Device: X$AA2_AtoD1.O1
  Voltage V(AA2,$G_DGND)= 7.0185 is beyond the ranges defined in model DO74


DIGITAL Message ID#231 (SERIOUS):
DIGITAL INPUT VOLTAGE Hazard at time 11.5500742ms
  Device: X$AA1_AtoD1.O1
  Voltage V(AA1,$G_DGND)= 7.0186 is beyond the ranges defined in model DO74


DIGITAL Message ID#232 (SERIOUS):
DIGITAL INPUT VOLTAGE Hazard at time 11.6000743ms
  Device: X$AA2_AtoD1.O1
  Voltage V(AA2,$G_DGND)= 7.0140 is beyond the ranges defined in model DO74


DIGITAL Message ID#233 (SERIOUS):
DIGITAL INPUT VOLTAGE Hazard at time 11.6500742ms
  Device: X$AA1_AtoD1.O1
  Voltage V(AA1,$G_DGND)= 7.0185 is beyond the ranges defined in model DO74


DIGITAL Message ID#234 (SERIOUS):
DIGITAL INPUT VOLTAGE Hazard at time 11.7000743ms
  Device: X$AA2_AtoD1.O1
  Voltage V(AA2,$G_DGND)= 7.0262 is beyond the ranges defined in model DO74


DIGITAL Message ID#235 (SERIOUS):
DIGITAL INPUT VOLTAGE Hazard at time 11.7500743ms
  Device: X$AA1_AtoD1.O1
  Voltage V(AA1,$G_DGND)= 7.0087 is beyond the ranges defined in model DO74


DIGITAL Message ID#236 (SERIOUS):
DIGITAL INPUT VOLTAGE Hazard at time 11.8000743ms
  Device: X$AA2_AtoD1.O1
  Voltage V(AA2,$G_DGND)= 7.0092 is beyond the ranges defined in model DO74


DIGITAL Message ID#237 (SERIOUS):
DIGITAL INPUT VOLTAGE Hazard at time 11.8500743ms
  Device: X$AA1_AtoD1.O1
  Voltage V(AA1,$G_DGND)= 7.0087 is beyond the ranges defined in model DO74


DIGITAL Message ID#238 (SERIOUS):
DIGITAL INPUT VOLTAGE Hazard at time 11.9000743ms
  Device: X$AA2_AtoD1.O1
  Voltage V(AA2,$G_DGND)= 7.0233 is beyond the ranges defined in model DO74


DIGITAL Message ID#239 (SERIOUS):
DIGITAL INPUT VOLTAGE Hazard at time 11.9500743ms
  Device: X$AA1_AtoD1.O1
  Voltage V(AA1,$G_DGND)= 7.0088 is beyond the ranges defined in model DO74


DIGITAL Message ID#240 (SERIOUS):
DIGITAL INPUT VOLTAGE Hazard at time 12.0000743ms
  Device: X$AA2_AtoD1.O1
  Voltage V(AA2,$G_DGND)= 7.0232 is beyond the ranges defined in model DO74


DIGITAL Message ID#241 (SERIOUS):
DIGITAL INPUT VOLTAGE Hazard at time 12.0500743ms
  Device: X$AA1_AtoD1.O1
  Voltage V(AA1,$G_DGND)= 7.0090 is beyond the ranges defined in model DO74


DIGITAL Message ID#242 (SERIOUS):
DIGITAL INPUT VOLTAGE Hazard at time 12.1000742ms
  Device: X$AA2_AtoD1.O1
  Voltage V(AA2,$G_DGND)= 7.0218 is beyond the ranges defined in model DO74


DIGITAL Message ID#243 (SERIOUS):
DIGITAL INPUT VOLTAGE Hazard at time 12.1500743ms
  Device: X$AA1_AtoD1.O1
  Voltage V(AA1,$G_DGND)= 7.0116 is beyond the ranges defined in model DO74


DIGITAL Message ID#244 (SERIOUS):
DIGITAL INPUT VOLTAGE Hazard at time 12.2000742ms
  Device: X$AA2_AtoD1.O1
  Voltage V(AA2,$G_DGND)= 7.0137 is beyond the ranges defined in model DO74


DIGITAL Message ID#245 (SERIOUS):
DIGITAL INPUT VOLTAGE Hazard at time 12.2500742ms
  Device: X$AA1_AtoD1.O1
  Voltage V(AA1,$G_DGND)= 7.0185 is beyond the ranges defined in model DO74


DIGITAL Message ID#246 (SERIOUS):
DIGITAL INPUT VOLTAGE Hazard at time 12.3000743ms
  Device: X$AA2_AtoD1.O1
  Voltage V(AA2,$G_DGND)= 7.0120 is beyond the ranges defined in model DO74


DIGITAL Message ID#247 (SERIOUS):
DIGITAL INPUT VOLTAGE Hazard at time 12.3500743ms
  Device: X$AA1_AtoD1.O1
  Voltage V(AA1,$G_DGND)= 7.0088 is beyond the ranges defined in model DO74


DIGITAL Message ID#248 (SERIOUS):
DIGITAL INPUT VOLTAGE Hazard at time 12.4000742ms
  Device: X$AA2_AtoD1.O1
  Voltage V(AA2,$G_DGND)= 7.0185 is beyond the ranges defined in model DO74


DIGITAL Message ID#249 (SERIOUS):
DIGITAL INPUT VOLTAGE Hazard at time 12.4500742ms
  Device: X$AA1_AtoD1.O1
  Voltage V(AA1,$G_DGND)= 7.0185 is beyond the ranges defined in model DO74


DIGITAL Message ID#250 (SERIOUS):
DIGITAL INPUT VOLTAGE Hazard at time 12.5000743ms
  Device: X$AA2_AtoD1.O1
  Voltage V(AA2,$G_DGND)= 7.0139 is beyond the ranges defined in model DO74


DIGITAL Message ID#251 (SERIOUS):
DIGITAL INPUT VOLTAGE Hazard at time 12.5500743ms
  Device: X$AA1_AtoD1.O1
  Voltage V(AA1,$G_DGND)= 7.0116 is beyond the ranges defined in model DO74


DIGITAL Message ID#252 (SERIOUS):
DIGITAL INPUT VOLTAGE Hazard at time 12.6000743ms
  Device: X$AA2_AtoD1.O1
  Voltage V(AA2,$G_DGND)= 7.0119 is beyond the ranges defined in model DO74


DIGITAL Message ID#253 (SERIOUS):
DIGITAL INPUT VOLTAGE Hazard at time 12.6500742ms
  Device: X$AA1_AtoD1.O1
  Voltage V(AA1,$G_DGND)= 7.0214 is beyond the ranges defined in model DO74


DIGITAL Message ID#254 (SERIOUS):
DIGITAL INPUT VOLTAGE Hazard at time 12.7000743ms
  Device: X$AA2_AtoD1.O1
  Voltage V(AA2,$G_DGND)= 7.0110 is beyond the ranges defined in model DO74


DIGITAL Message ID#255 (SERIOUS):
DIGITAL INPUT VOLTAGE Hazard at time 12.7500743ms
  Device: X$AA1_AtoD1.O1
  Voltage V(AA1,$G_DGND)= 7.0116 is beyond the ranges defined in model DO74


DIGITAL Message ID#256 (SERIOUS):
DIGITAL INPUT VOLTAGE Hazard at time 12.8000743ms
  Device: X$AA2_AtoD1.O1
  Voltage V(AA2,$G_DGND)= 7.0109 is beyond the ranges defined in model DO74


DIGITAL Message ID#257 (SERIOUS):
DIGITAL INPUT VOLTAGE Hazard at time 12.8500743ms
  Device: X$AA1_AtoD1.O1
  Voltage V(AA1,$G_DGND)= 7.0136 is beyond the ranges defined in model DO74


DIGITAL Message ID#258 (SERIOUS):
DIGITAL INPUT VOLTAGE Hazard at time 12.9000743ms
  Device: X$AA2_AtoD1.O1
  Voltage V(AA2,$G_DGND)= 7.0139 is beyond the ranges defined in model DO74


DIGITAL Message ID#259 (SERIOUS):
DIGITAL INPUT VOLTAGE Hazard at time 12.9500742ms
  Device: X$AA1_AtoD1.O1
  Voltage V(AA1,$G_DGND)= 7.0185 is beyond the ranges defined in model DO74


DIGITAL Message ID#260 (SERIOUS):
DIGITAL INPUT VOLTAGE Hazard at time 13.0000743ms
  Device: X$AA2_AtoD1.O1
  Voltage V(AA2,$G_DGND)= 7.0110 is beyond the ranges defined in model DO74


DIGITAL Message ID#261 (SERIOUS):
DIGITAL INPUT VOLTAGE Hazard at time 13.0500743ms
  Device: X$AA1_AtoD1.O1
  Voltage V(AA1,$G_DGND)= 7.0107 is beyond the ranges defined in model DO74


DIGITAL Message ID#262 (SERIOUS):
DIGITAL INPUT VOLTAGE Hazard at time 13.1000743ms
  Device: X$AA2_AtoD1.O1
  Voltage V(AA2,$G_DGND)= 7.0111 is beyond the ranges defined in model DO74


DIGITAL Message ID#263 (SERIOUS):
DIGITAL INPUT VOLTAGE Hazard at time 13.1500743ms
  Device: X$AA1_AtoD1.O1
  Voltage V(AA1,$G_DGND)= 7.0091 is beyond the ranges defined in model DO74


DIGITAL Message ID#264 (SERIOUS):
DIGITAL INPUT VOLTAGE Hazard at time 13.2000743ms
  Device: X$AA2_AtoD1.O1
  Voltage V(AA2,$G_DGND)= 7.0091 is beyond the ranges defined in model DO74


DIGITAL Message ID#265 (SERIOUS):
DIGITAL INPUT VOLTAGE Hazard at time 13.2500742ms
  Device: X$AA1_AtoD1.O1
  Voltage V(AA1,$G_DGND)= 7.0185 is beyond the ranges defined in model DO74


DIGITAL Message ID#266 (SERIOUS):
DIGITAL INPUT VOLTAGE Hazard at time 13.3000743ms
  Device: X$AA2_AtoD1.O1
  Voltage V(AA2,$G_DGND)= 7.0111 is beyond the ranges defined in model DO74


DIGITAL Message ID#267 (SERIOUS):
DIGITAL INPUT VOLTAGE Hazard at time 13.3500743ms
  Device: X$AA1_AtoD1.O1
  Voltage V(AA1,$G_DGND)= 7.0091 is beyond the ranges defined in model DO74


DIGITAL Message ID#268 (SERIOUS):
DIGITAL INPUT VOLTAGE Hazard at time 13.4000743ms
  Device: X$AA2_AtoD1.O1
  Voltage V(AA2,$G_DGND)= 7.0232 is beyond the ranges defined in model DO74


DIGITAL Message ID#269 (SERIOUS):
DIGITAL INPUT VOLTAGE Hazard at time 13.4500743ms
  Device: X$AA1_AtoD1.O1
  Voltage V(AA1,$G_DGND)= 7.0116 is beyond the ranges defined in model DO74


DIGITAL Message ID#270 (SERIOUS):
DIGITAL INPUT VOLTAGE Hazard at time 13.5000742ms
  Device: X$AA2_AtoD1.O1
  Voltage V(AA2,$G_DGND)= 7.0226 is beyond the ranges defined in model DO74


DIGITAL Message ID#271 (SERIOUS):
DIGITAL INPUT VOLTAGE Hazard at time 13.5500743ms
  Device: X$AA1_AtoD1.O1
  Voltage V(AA1,$G_DGND)= 7.0087 is beyond the ranges defined in model DO74


DIGITAL Message ID#272 (SERIOUS):
DIGITAL INPUT VOLTAGE Hazard at time 13.6000743ms
  Device: X$AA2_AtoD1.O1
  Voltage V(AA2,$G_DGND)= 7.0092 is beyond the ranges defined in model DO74


DIGITAL Message ID#273 (SERIOUS):
DIGITAL INPUT VOLTAGE Hazard at time 13.6500743ms
  Device: X$AA1_AtoD1.O1
  Voltage V(AA1,$G_DGND)= 7.0110 is beyond the ranges defined in model DO74


DIGITAL Message ID#274 (SERIOUS):
DIGITAL INPUT VOLTAGE Hazard at time 13.7000743ms
  Device: X$AA2_AtoD1.O1
  Voltage V(AA2,$G_DGND)= 7.0110 is beyond the ranges defined in model DO74


DIGITAL Message ID#275 (SERIOUS):
DIGITAL INPUT VOLTAGE Hazard at time 13.7500743ms
  Device: X$AA1_AtoD1.O1
  Voltage V(AA1,$G_DGND)= 7.0116 is beyond the ranges defined in model DO74


DIGITAL Message ID#276 (SERIOUS):
DIGITAL INPUT VOLTAGE Hazard at time 13.8000743ms
  Device: X$AA2_AtoD1.O1
  Voltage V(AA2,$G_DGND)= 7.0232 is beyond the ranges defined in model DO74


DIGITAL Message ID#277 (SERIOUS):
DIGITAL INPUT VOLTAGE Hazard at time 13.8500742ms
  Device: X$AA1_AtoD1.O1
  Voltage V(AA1,$G_DGND)= 7.0260 is beyond the ranges defined in model DO74


DIGITAL Message ID#278 (SERIOUS):
DIGITAL INPUT VOLTAGE Hazard at time 13.9000743ms
  Device: X$AA2_AtoD1.O1
  Voltage V(AA2,$G_DGND)= 7.0110 is beyond the ranges defined in model DO74


DIGITAL Message ID#279 (SERIOUS):
DIGITAL INPUT VOLTAGE Hazard at time 13.9500743ms
  Device: X$AA1_AtoD1.O1
  Voltage V(AA1,$G_DGND)= 7.0091 is beyond the ranges defined in model DO74


DIGITAL Message ID#280 (SERIOUS):
DIGITAL INPUT VOLTAGE Hazard at time 14.0000743ms
  Device: X$AA2_AtoD1.O1
  Voltage V(AA2,$G_DGND)= 7.0110 is beyond the ranges defined in model DO74


DIGITAL Message ID#281 (SERIOUS):
DIGITAL INPUT VOLTAGE Hazard at time 14.0500743ms
  Device: X$AA1_AtoD1.O1
  Voltage V(AA1,$G_DGND)= 7.0132 is beyond the ranges defined in model DO74


DIGITAL Message ID#282 (SERIOUS):
DIGITAL INPUT VOLTAGE Hazard at time 14.1000743ms
  Device: X$AA2_AtoD1.O1
  Voltage V(AA2,$G_DGND)= 7.0122 is beyond the ranges defined in model DO74


DIGITAL Message ID#283 (SERIOUS):
DIGITAL INPUT VOLTAGE Hazard at time 14.1500742ms
  Device: X$AA1_AtoD1.O1
  Voltage V(AA1,$G_DGND)= 7.0185 is beyond the ranges defined in model DO74


DIGITAL Message ID#284 (SERIOUS):
DIGITAL INPUT VOLTAGE Hazard at time 14.2000742ms
  Device: X$AA2_AtoD1.O1
  Voltage V(AA2,$G_DGND)= 7.0218 is beyond the ranges defined in model DO74


DIGITAL Message ID#285 (SERIOUS):
DIGITAL INPUT VOLTAGE Hazard at time 14.2500743ms
  Device: X$AA1_AtoD1.O1
  Voltage V(AA1,$G_DGND)= 7.0132 is beyond the ranges defined in model DO74


DIGITAL Message ID#286 (SERIOUS):
DIGITAL INPUT VOLTAGE Hazard at time 14.3000743ms
  Device: X$AA2_AtoD1.O1
  Voltage V(AA2,$G_DGND)= 7.0140 is beyond the ranges defined in model DO74


DIGITAL Message ID#287 (SERIOUS):
DIGITAL INPUT VOLTAGE Hazard at time 14.3500742ms
  Device: X$AA1_AtoD1.O1
  Voltage V(AA1,$G_DGND)= 7.0214 is beyond the ranges defined in model DO74


DIGITAL Message ID#288 (SERIOUS):
DIGITAL INPUT VOLTAGE Hazard at time 14.4000742ms
  Device: X$AA2_AtoD1.O1
  Voltage V(AA2,$G_DGND)= 7.0185 is beyond the ranges defined in model DO74


DIGITAL Message ID#289 (SERIOUS):
DIGITAL INPUT VOLTAGE Hazard at time 14.4500742ms
  Device: X$AA1_AtoD1.O1
  Voltage V(AA1,$G_DGND)= 7.0181 is beyond the ranges defined in model DO74


DIGITAL Message ID#290 (SERIOUS):
DIGITAL INPUT VOLTAGE Hazard at time 14.5000743ms
  Device: X$AA2_AtoD1.O1
  Voltage V(AA2,$G_DGND)= 7.0262 is beyond the ranges defined in model DO74


DIGITAL Message ID#291 (SERIOUS):
DIGITAL INPUT VOLTAGE Hazard at time 14.5500743ms
  Device: X$AA1_AtoD1.O1
  Voltage V(AA1,$G_DGND)= 7.0092 is beyond the ranges defined in model DO74


DIGITAL Message ID#292 (SERIOUS):
DIGITAL INPUT VOLTAGE Hazard at time 14.6000743ms
  Device: X$AA2_AtoD1.O1
  Voltage V(AA2,$G_DGND)= 7.0232 is beyond the ranges defined in model DO74


DIGITAL Message ID#293 (SERIOUS):
DIGITAL INPUT VOLTAGE Hazard at time 14.6500743ms
  Device: X$AA1_AtoD1.O1
  Voltage V(AA1,$G_DGND)= 7.0116 is beyond the ranges defined in model DO74


DIGITAL Message ID#294 (SERIOUS):
DIGITAL INPUT VOLTAGE Hazard at time 14.7000743ms
  Device: X$AA2_AtoD1.O1
  Voltage V(AA2,$G_DGND)= 7.0110 is beyond the ranges defined in model DO74


DIGITAL Message ID#295 (SERIOUS):
DIGITAL INPUT VOLTAGE Hazard at time 14.7500743ms
  Device: X$AA1_AtoD1.O1
  Voltage V(AA1,$G_DGND)= 7.0090 is beyond the ranges defined in model DO74


DIGITAL Message ID#296 (SERIOUS):
DIGITAL INPUT VOLTAGE Hazard at time 14.8000742ms
  Device: X$AA2_AtoD1.O1
  Voltage V(AA2,$G_DGND)= 7.0185 is beyond the ranges defined in model DO74


DIGITAL Message ID#297 (SERIOUS):
DIGITAL INPUT VOLTAGE Hazard at time 14.8500743ms
  Device: X$AA1_AtoD1.O1
  Voltage V(AA1,$G_DGND)= 7.0133 is beyond the ranges defined in model DO74


DIGITAL Message ID#298 (SERIOUS):
DIGITAL INPUT VOLTAGE Hazard at time 14.9000743ms
  Device: X$AA2_AtoD1.O1
  Voltage V(AA2,$G_DGND)= 7.0141 is beyond the ranges defined in model DO74


DIGITAL Message ID#299 (SERIOUS):
DIGITAL INPUT VOLTAGE Hazard at time 14.9500743ms
  Device: X$AA1_AtoD1.O1
  Voltage V(AA1,$G_DGND)= 7.0132 is beyond the ranges defined in model DO74


DIGITAL Message ID#300 (SERIOUS):
DIGITAL INPUT VOLTAGE Hazard at time 15.0000743ms
  Device: X$AA2_AtoD1.O1
  Voltage V(AA2,$G_DGND)= 7.0232 is beyond the ranges defined in model DO74


DIGITAL Message ID#301 (SERIOUS):
DIGITAL INPUT VOLTAGE Hazard at time 15.0500743ms
  Device: X$AA1_AtoD1.O1
  Voltage V(AA1,$G_DGND)= 7.0229 is beyond the ranges defined in model DO74


DIGITAL Message ID#302 (SERIOUS):
DIGITAL INPUT VOLTAGE Hazard at time 15.1000743ms
  Device: X$AA2_AtoD1.O1
  Voltage V(AA2,$G_DGND)= 7.0109 is beyond the ranges defined in model DO74


DIGITAL Message ID#303 (SERIOUS):
DIGITAL INPUT VOLTAGE Hazard at time 15.1500742ms
  Device: X$AA1_AtoD1.O1
  Voltage V(AA1,$G_DGND)= 7.0185 is beyond the ranges defined in model DO74


DIGITAL Message ID#304 (SERIOUS):
DIGITAL INPUT VOLTAGE Hazard at time 15.2000743ms
  Device: X$AA2_AtoD1.O1
  Voltage V(AA2,$G_DGND)= 7.0091 is beyond the ranges defined in model DO74


DIGITAL Message ID#305 (SERIOUS):
DIGITAL INPUT VOLTAGE Hazard at time 15.2500743ms
[...]


DIGITAL Message ID#475 (SERIOUS):
DIGITAL INPUT VOLTAGE Hazard at time 74.8500743ms
  Device: X$AA1_AtoD1.O1
  Voltage V(AA1,$G_DGND)= 7.0259 is beyond the ranges defined in model DO74


DIGITAL Message ID#476 (SERIOUS):
DIGITAL INPUT VOLTAGE Hazard at time 74.9000743ms
  Device: X$AA2_AtoD1.O1
  Voltage V(AA2,$G_DGND)= 7.0232 is beyond the ranges defined in model DO74


DIGITAL Message ID#477 (SERIOUS):
DIGITAL INPUT VOLTAGE Hazard at time 74.9500743ms
  Device: X$AA1_AtoD1.O1
  Voltage V(AA1,$G_DGND)= 7.0110 is beyond the ranges defined in model DO74


DIGITAL Message ID#478 (SERIOUS):
DIGITAL INPUT VOLTAGE Hazard at time 75.0000742ms
  Device: X$AA2_AtoD1.O1
  Voltage V(AA2,$G_DGND)= 7.0227 is beyond the ranges defined in model DO74


DIGITAL Message ID#479 (SERIOUS):
DIGITAL INPUT VOLTAGE Hazard at time 75.0500743ms
  Device: X$AA1_AtoD1.O1
  Voltage V(AA1,$G_DGND)= 7.0110 is beyond the ranges defined in model DO74


DIGITAL Message ID#480 (SERIOUS):
DIGITAL INPUT VOLTAGE Hazard at time 75.1000743ms
  Device: X$AA2_AtoD1.O1
  Voltage V(AA2,$G_DGND)= 7.0125 is beyond the ranges defined in model DO74


DIGITAL Message ID#481 (SERIOUS):
DIGITAL INPUT VOLTAGE Hazard at time 75.1500743ms
  Device: X$AA1_AtoD1.O1
  Voltage V(AA1,$G_DGND)= 7.0259 is beyond the ranges defined in model DO74


DIGITAL Message ID#482 (SERIOUS):
DIGITAL INPUT VOLTAGE Hazard at time 75.2000743ms
  Device: X$AA2_AtoD1.O1
  Voltage V(AA2,$G_DGND)= 7.0262 is beyond the ranges defined in model DO74


DIGITAL Message ID#483 (SERIOUS):
DIGITAL INPUT VOLTAGE Hazard at time 75.2500742ms
  Device: X$AA1_AtoD1.O1
  Voltage V(AA1,$G_DGND)= 7.0232 is beyond the ranges defined in model DO74


DIGITAL Message ID#484 (SERIOUS):
DIGITAL INPUT VOLTAGE Hazard at time 75.3000744ms
  Device: X$AA2_AtoD1.O1
  Voltage V(AA2,$G_DGND)= 7.0232 is beyond the ranges defined in model DO74


DIGITAL Message ID#485 (SERIOUS):
DIGITAL INPUT VOLTAGE Hazard at time 75.3500742ms
  Device: X$AA1_AtoD1.O1
  Voltage V(AA1,$G_DGND)= 7.0260 is beyond the ranges defined in model DO74


DIGITAL Message ID#486 (SERIOUS):
DIGITAL INPUT VOLTAGE Hazard at time 75.4000743ms
  Device: X$AA2_AtoD1.O1
  Voltage V(AA2,$G_DGND)= 7.0262 is beyond the ranges defined in model DO74


DIGITAL Message ID#487 (SERIOUS):
DIGITAL INPUT VOLTAGE Hazard at time 75.4500743ms
  Device: X$AA1_AtoD1.O1
  Voltage V(AA1,$G_DGND)= 7.0110 is beyond the ranges defined in model DO74


DIGITAL Message ID#488 (SERIOUS):
DIGITAL INPUT VOLTAGE Hazard at time 75.5000742ms
  Device: X$AA2_AtoD1.O1
  Voltage V(AA2,$G_DGND)= 7.0246 is beyond the ranges defined in model DO74


DIGITAL Message ID#489 (SERIOUS):
DIGITAL INPUT VOLTAGE Hazard at time 75.5500742ms
  Device: X$AA1_AtoD1.O1
  Voltage V(AA1,$G_DGND)= 7.0260 is beyond the ranges defined in model DO74


DIGITAL Message ID#490 (SERIOUS):
DIGITAL INPUT VOLTAGE Hazard at time 75.6000743ms
  Device: X$AA2_AtoD1.O1
  Voltage V(AA2,$G_DGND)= 7.0098 is beyond the ranges defined in model DO74


DIGITAL Message ID#491 (SERIOUS):
DIGITAL INPUT VOLTAGE Hazard at time 75.6500743ms
  Device: X$AA1_AtoD1.O1
  Voltage V(AA1,$G_DGND)= 7.0259 is beyond the ranges defined in model DO74


DIGITAL Message ID#492 (SERIOUS):
DIGITAL INPUT VOLTAGE Hazard at time 75.7000743ms
  Device: X$AA2_AtoD1.O1
  Voltage V(AA2,$G_DGND)= 7.0262 is beyond the ranges defined in model DO74


DIGITAL Message ID#493 (SERIOUS):
DIGITAL INPUT VOLTAGE Hazard at time 75.7500742ms
  Device: X$AA1_AtoD1.O1
  Voltage V(AA1,$G_DGND)= 7.0186 is beyond the ranges defined in model DO74


DIGITAL Message ID#494 (SERIOUS):
DIGITAL INPUT VOLTAGE Hazard at time 75.8000743ms
  Device: X$AA2_AtoD1.O1
  Voltage V(AA2,$G_DGND)= 7.0098 is beyond the ranges defined in model DO74


DIGITAL Message ID#495 (SERIOUS):
DIGITAL INPUT VOLTAGE Hazard at time 75.8500743ms
  Device: X$AA1_AtoD1.O1
  Voltage V(AA1,$G_DGND)= 7.0259 is beyond the ranges defined in model DO74


DIGITAL Message ID#496 (SERIOUS):
DIGITAL INPUT VOLTAGE Hazard at time 75.9000743ms
  Device: X$AA2_AtoD1.O1
  Voltage V(AA2,$G_DGND)= 7.0262 is beyond the ranges defined in model DO74


DIGITAL Message ID#497 (SERIOUS):
DIGITAL INPUT VOLTAGE Hazard at time 75.9500743ms
  Device: X$AA1_AtoD1.O1
  Voltage V(AA1,$G_DGND)= 7.0259 is beyond the ranges defined in model DO74


DIGITAL Message ID#498 (SERIOUS):
DIGITAL INPUT VOLTAGE Hazard at time 76.0000742ms
  Device: X$AA2_AtoD1.O1
  Voltage V(AA2,$G_DGND)= 7.0231 is beyond the ranges defined in model DO74


DIGITAL Message ID#499 (SERIOUS):
DIGITAL INPUT VOLTAGE Hazard at time 76.0500743ms
  Device: X$AA1_AtoD1.O1
  Voltage V(AA1,$G_DGND)= 7.0109 is beyond the ranges defined in model DO74


DIGITAL Message ID#500 (SERIOUS):
DIGITAL INPUT VOLTAGE Hazard at time 76.1000743ms
  Device: X$AA2_AtoD1.O1
  Voltage V(AA2,$G_DGND)= 7.0233 is beyond the ranges defined in model DO74


DIGITAL Message ID#501 (SERIOUS):
DIGITAL INPUT VOLTAGE Hazard at time 76.1500742ms
  Device: X$AA1_AtoD1.O1
  Voltage V(AA1,$G_DGND)= 7.0260 is beyond the ranges defined in model DO74


DIGITAL Message ID#502 (SERIOUS):
DIGITAL INPUT VOLTAGE Hazard at time 76.2000743ms
  Device: X$AA2_AtoD1.O1
  Voltage V(AA2,$G_DGND)= 7.0141 is beyond the ranges defined in model DO74


DIGITAL Message ID#503 (SERIOUS):
DIGITAL INPUT VOLTAGE Hazard at time 76.2500742ms
  Device: X$AA1_AtoD1.O1
  Voltage V(AA1,$G_DGND)= 7.0254 is beyond the ranges defined in model DO74


DIGITAL Message ID#504 (SERIOUS):
DIGITAL INPUT VOLTAGE Hazard at time 76.3000743ms
  Device: X$AA2_AtoD1.O1
  Voltage V(AA2,$G_DGND)= 7.0232 is beyond the ranges defined in model DO74


DIGITAL Message ID#505 (SERIOUS):
DIGITAL INPUT VOLTAGE Hazard at time 76.3500742ms
  Device: X$AA1_AtoD1.O1
  Voltage V(AA1,$G_DGND)= 7.0260 is beyond the ranges defined in model DO74


DIGITAL Message ID#506 (SERIOUS):
DIGITAL INPUT VOLTAGE Hazard at time 76.4000743ms
  Device: X$AA2_AtoD1.O1
  Voltage V(AA2,$G_DGND)= 7.0140 is beyond the ranges defined in model DO74


DIGITAL Message ID#507 (SERIOUS):
DIGITAL INPUT VOLTAGE Hazard at time 76.4500742ms
  Device: X$AA1_AtoD1.O1
  Voltage V(AA1,$G_DGND)= 7.0260 is beyond the ranges defined in model DO74


DIGITAL Message ID#508 (SERIOUS):
DIGITAL INPUT VOLTAGE Hazard at time 76.5000742ms
  Device: X$AA2_AtoD1.O1
  Voltage V(AA2,$G_DGND)= 7.0227 is beyond the ranges defined in model DO74


DIGITAL Message ID#509 (SERIOUS):
DIGITAL INPUT VOLTAGE Hazard at time 76.5500743ms
  Device: X$AA1_AtoD1.O1
  Voltage V(AA1,$G_DGND)= 7.0110 is beyond the ranges defined in model DO74


DIGITAL Message ID#510 (SERIOUS):
DIGITAL INPUT VOLTAGE Hazard at time 76.6000743ms
  Device: X$AA2_AtoD1.O1
  Voltage V(AA2,$G_DGND)= 7.0574 is beyond the ranges defined in model DO74


DIGITAL Message ID#511 (SERIOUS):
DIGITAL INPUT VOLTAGE Hazard at time 76.6500743ms
  Device: X$AA1_AtoD1.O1
  Voltage V(AA1,$G_DGND)= 7.0110 is beyond the ranges defined in model DO74


DIGITAL Message ID#512 (SERIOUS):
DIGITAL INPUT VOLTAGE Hazard at time 76.7000743ms
  Device: X$AA2_AtoD1.O1
  Voltage V(AA2,$G_DGND)= 7.0140 is beyond the ranges defined in model DO74


DIGITAL Message ID#513 (SERIOUS):
DIGITAL INPUT VOLTAGE Hazard at time 76.7500742ms
  Device: X$AA1_AtoD1.O1
  Voltage V(AA1,$G_DGND)= 7.0232 is beyond the ranges defined in model DO74


DIGITAL Message ID#514 (SERIOUS):
DIGITAL INPUT VOLTAGE Hazard at time 76.8000743ms
  Device: X$AA2_AtoD1.O1
  Voltage V(AA2,$G_DGND)= 7.0262 is beyond the ranges defined in model DO74


DIGITAL Message ID#515 (SERIOUS):
DIGITAL INPUT VOLTAGE Hazard at time 76.8500742ms
  Device: X$AA1_AtoD1.O1
  Voltage V(AA1,$G_DGND)= 7.0260 is beyond the ranges defined in model DO74


DIGITAL Message ID#516 (SERIOUS):
DIGITAL INPUT VOLTAGE Hazard at time 76.9000743ms
  Device: X$AA2_AtoD1.O1
  Voltage V(AA2,$G_DGND)= 7.0232 is beyond the ranges defined in model DO74


DIGITAL Message ID#517 (SERIOUS):
DIGITAL INPUT VOLTAGE Hazard at time 76.9500743ms
  Device: X$AA1_AtoD1.O1
  Voltage V(AA1,$G_DGND)= 7.0259 is beyond the ranges defined in model DO74


DIGITAL Message ID#518 (SERIOUS):
DIGITAL INPUT VOLTAGE Hazard at time 77.0000742ms
  Device: X$AA2_AtoD1.O1
  Voltage V(AA2,$G_DGND)= 7.0231 is beyond the ranges defined in model DO74


DIGITAL Message ID#519 (SERIOUS):
DIGITAL INPUT VOLTAGE Hazard at time 77.0500743ms
  Device: X$AA1_AtoD1.O1
  Voltage V(AA1,$G_DGND)= 7.0110 is beyond the ranges defined in model DO74


DIGITAL Message ID#520 (SERIOUS):
DIGITAL INPUT VOLTAGE Hazard at time 77.1000743ms
  Device: X$AA2_AtoD1.O1
  Voltage V(AA2,$G_DGND)= 7.0262 is beyond the ranges defined in model DO74


DIGITAL Message ID#521 (SERIOUS):
DIGITAL INPUT VOLTAGE Hazard at time 77.1500742ms
  Device: X$AA1_AtoD1.O1
  Voltage V(AA1,$G_DGND)= 7.0260 is beyond the ranges defined in model DO74


DIGITAL Message ID#522 (SERIOUS):
DIGITAL INPUT VOLTAGE Hazard at time 77.2000743ms
  Device: X$AA2_AtoD1.O1
  Voltage V(AA2,$G_DGND)= 7.0260 is beyond the ranges defined in model DO74


DIGITAL Message ID#523 (SERIOUS):
DIGITAL INPUT VOLTAGE Hazard at time 77.2500742ms
  Device: X$AA1_AtoD1.O1
  Voltage V(AA1,$G_DGND)= 7.0254 is beyond the ranges defined in model DO74


DIGITAL Message ID#524 (SERIOUS):
DIGITAL INPUT VOLTAGE Hazard at time 77.3000743ms
  Device: X$AA2_AtoD1.O1
  Voltage V(AA2,$G_DGND)= 7.0141 is beyond the ranges defined in model DO74


DIGITAL Message ID#525 (SERIOUS):
DIGITAL INPUT VOLTAGE Hazard at time 77.3500742ms
  Device: X$AA1_AtoD1.O1
  Voltage V(AA1,$G_DGND)= 7.0260 is beyond the ranges defined in model DO74


DIGITAL Message ID#526 (SERIOUS):
DIGITAL INPUT VOLTAGE Hazard at time 77.4000743ms
  Device: X$AA2_AtoD1.O1
  Voltage V(AA2,$G_DGND)= 7.0141 is beyond the ranges defined in model DO74


DIGITAL Message ID#527 (SERIOUS):
DIGITAL INPUT VOLTAGE Hazard at time 77.4500743ms
  Device: X$AA1_AtoD1.O1
  Voltage V(AA1,$G_DGND)= 7.0110 is beyond the ranges defined in model DO74


DIGITAL Message ID#528 (SERIOUS):
DIGITAL INPUT VOLTAGE Hazard at time 77.5000744ms
  Device: X$AA2_AtoD1.O1
  Voltage V(AA2,$G_DGND)= 7.0259 is beyond the ranges defined in model DO74


DIGITAL Message ID#529 (SERIOUS):
DIGITAL INPUT VOLTAGE Hazard at time 77.5500743ms
  Device: X$AA1_AtoD1.O1
  Voltage V(AA1,$G_DGND)= 7.0110 is beyond the ranges defined in model DO74


DIGITAL Message ID#530 (SERIOUS):
DIGITAL INPUT VOLTAGE Hazard at time 77.6000743ms
  Device: X$AA2_AtoD1.O1
  Voltage V(AA2,$G_DGND)= 7.0096 is beyond the ranges defined in model DO74


DIGITAL Message ID#531 (SERIOUS):
DIGITAL INPUT VOLTAGE Hazard at time 77.6500742ms
  Device: X$AA1_AtoD1.O1
  Voltage V(AA1,$G_DGND)= 7.0227 is beyond the ranges defined in model DO74


DIGITAL Message ID#532 (SERIOUS):
DIGITAL INPUT VOLTAGE Hazard at time 77.7000743ms
  Device: X$AA2_AtoD1.O1
  Voltage V(AA2,$G_DGND)= 7.0127 is beyond the ranges defined in model DO74


DIGITAL Message ID#533 (SERIOUS):
DIGITAL INPUT VOLTAGE Hazard at time 77.7500743ms
  Device: X$AA1_AtoD1.O1
  Voltage V(AA1,$G_DGND)= 7.0259 is beyond the ranges defined in model DO74


DIGITAL Message ID#534 (SERIOUS):
DIGITAL INPUT VOLTAGE Hazard at time 77.8000743ms
  Device: X$AA2_AtoD1.O1
  Voltage V(AA2,$G_DGND)= 7.0109 is beyond the ranges defined in model DO74


DIGITAL Message ID#535 (SERIOUS):
DIGITAL INPUT VOLTAGE Hazard at time 77.8500742ms
  Device: X$AA1_AtoD1.O1
  Voltage V(AA1,$G_DGND)= 7.0260 is beyond the ranges defined in model DO74


DIGITAL Message ID#536 (SERIOUS):
DIGITAL INPUT VOLTAGE Hazard at time 77.9000742ms
  Device: X$AA2_AtoD1.O1
  Voltage V(AA2,$G_DGND)= 7.0231 is beyond the ranges defined in model DO74


DIGITAL Message ID#537 (SERIOUS):
DIGITAL INPUT VOLTAGE Hazard at time 77.9500743ms
  Device: X$AA1_AtoD1.O1
  Voltage V(AA1,$G_DGND)= 7.0110 is beyond the ranges defined in model DO74


DIGITAL Message ID#538 (SERIOUS):
DIGITAL INPUT VOLTAGE Hazard at time 78.0000743ms
  Device: X$AA2_AtoD1.O1
  Voltage V(AA2,$G_DGND)= 7.0140 is beyond the ranges defined in model DO74


DIGITAL Message ID#539 (SERIOUS):
DIGITAL INPUT VOLTAGE Hazard at time 78.0500742ms
  Device: X$AA1_AtoD1.O1
  Voltage V(AA1,$G_DGND)= 7.0260 is beyond the ranges defined in model DO74


DIGITAL Message ID#540 (SERIOUS):
DIGITAL INPUT VOLTAGE Hazard at time 78.1000743ms
  Device: X$AA2_AtoD1.O1
  Voltage V(AA2,$G_DGND)= 7.0263 is beyond the ranges defined in model DO74


DIGITAL Message ID#541 (SERIOUS):
DIGITAL INPUT VOLTAGE Hazard at time 78.1500742ms
  Device: X$AA1_AtoD1.O1
  Voltage V(AA1,$G_DGND)= 7.0254 is beyond the ranges defined in model DO74


DIGITAL Message ID#542 (SERIOUS):
DIGITAL INPUT VOLTAGE Hazard at time 78.2000743ms
  Device: X$AA2_AtoD1.O1
  Voltage V(AA2,$G_DGND)= 7.0098 is beyond the ranges defined in model DO74


DIGITAL Message ID#543 (SERIOUS):
DIGITAL INPUT VOLTAGE Hazard at time 78.2500742ms
  Device: X$AA1_AtoD1.O1
  Voltage V(AA1,$G_DGND)= 7.0254 is beyond the ranges defined in model DO74


DIGITAL Message ID#544 (SERIOUS):
DIGITAL INPUT VOLTAGE Hazard at time 78.3000743ms
  Device: X$AA2_AtoD1.O1
  Voltage V(AA2,$G_DGND)= 7.0229 is beyond the ranges defined in model DO74


DIGITAL Message ID#545 (SERIOUS):
DIGITAL INPUT VOLTAGE Hazard at time 78.3500743ms
  Device: X$AA1_AtoD1.O1
  Voltage V(AA1,$G_DGND)= 7.0259 is beyond the ranges defined in model DO74


DIGITAL Message ID#546 (SERIOUS):
DIGITAL INPUT VOLTAGE Hazard at time 78.4000742ms
  Device: X$AA2_AtoD1.O1
  Voltage V(AA2,$G_DGND)= 7.0232 is beyond the ranges defined in model DO74


DIGITAL Message ID#547 (SERIOUS):
DIGITAL INPUT VOLTAGE Hazard at time 78.4500743ms
  Device: X$AA1_AtoD1.O1
  Voltage V(AA1,$G_DGND)= 7.0110 is beyond the ranges defined in model DO74


DIGITAL Message ID#548 (SERIOUS):
DIGITAL INPUT VOLTAGE Hazard at time 78.5000743ms
  Device: X$AA2_AtoD1.O1
  Voltage V(AA2,$G_DGND)= 7.0140 is beyond the ranges defined in model DO74


DIGITAL Message ID#549 (SERIOUS):
DIGITAL INPUT VOLTAGE Hazard at time 78.5500742ms
  Device: X$AA1_AtoD1.O1
  Voltage V(AA1,$G_DGND)= 7.0261 is beyond the ranges defined in model DO74


DIGITAL Message ID#550 (SERIOUS):
DIGITAL INPUT VOLTAGE Hazard at time 78.6000743ms
  Device: X$AA2_AtoD1.O1
  Voltage V(AA2,$G_DGND)= 7.0140 is beyond the ranges defined in model DO74


DIGITAL Message ID#551 (SERIOUS):
DIGITAL INPUT VOLTAGE Hazard at time 78.6500742ms
  Device: X$AA1_AtoD1.O1
  Voltage V(AA1,$G_DGND)= 7.0231 is beyond the ranges defined in model DO74


DIGITAL Message ID#552 (SERIOUS):
DIGITAL INPUT VOLTAGE Hazard at time 78.7000743ms
  Device: X$AA2_AtoD1.O1
  Voltage V(AA2,$G_DGND)= 7.0138 is beyond the ranges defined in model DO74


DIGITAL Message ID#553 (SERIOUS):
DIGITAL INPUT VOLTAGE Hazard at time 78.7500742ms
  Device: X$AA1_AtoD1.O1
  Voltage V(AA1,$G_DGND)= 7.0260 is beyond the ranges defined in model DO74


DIGITAL Message ID#554 (SERIOUS):
DIGITAL INPUT VOLTAGE Hazard at time 78.8000743ms
  Device: X$AA2_AtoD1.O1
  Voltage V(AA2,$G_DGND)= 7.0110 is beyond the ranges defined in model DO74


DIGITAL Message ID#555 (SERIOUS):
DIGITAL INPUT VOLTAGE Hazard at time 78.8500743ms
  Device: X$AA1_AtoD1.O1
  Voltage V(AA1,$G_DGND)= 7.0258 is beyond the ranges defined in model DO74


DIGITAL Message ID#556 (SERIOUS):
DIGITAL INPUT VOLTAGE Hazard at time 78.9000742ms
  Device: X$AA2_AtoD1.O1
  Voltage V(AA2,$G_DGND)= 7.0231 is beyond the ranges defined in model DO74


DIGITAL Message ID#557 (SERIOUS):
DIGITAL INPUT VOLTAGE Hazard at time 78.9500743ms
  Device: X$AA1_AtoD1.O1
  Voltage V(AA1,$G_DGND)= 7.0259 is beyond the ranges defined in model DO74


DIGITAL Message ID#558 (SERIOUS):
DIGITAL INPUT VOLTAGE Hazard at time 79.0000744ms
  Device: X$AA2_AtoD1.O1
  Voltage V(AA2,$G_DGND)= 7.0141 is beyond the ranges defined in model DO74


DIGITAL Message ID#559 (SERIOUS):
DIGITAL INPUT VOLTAGE Hazard at time 79.0500743ms
  Device: X$AA1_AtoD1.O1
  Voltage V(AA1,$G_DGND)= 7.0259 is beyond the ranges defined in model DO74


DIGITAL Message ID#560 (SERIOUS):
DIGITAL INPUT VOLTAGE Hazard at time 79.1000743ms
  Device: X$AA2_AtoD1.O1
  Voltage V(AA2,$G_DGND)= 7.0140 is beyond the ranges defined in model DO74


DIGITAL Message ID#561 (SERIOUS):
DIGITAL INPUT VOLTAGE Hazard at time 79.1500742ms
  Device: X$AA1_AtoD1.O1
  Voltage V(AA1,$G_DGND)= 7.0254 is beyond the ranges defined in model DO74


DIGITAL Message ID#562 (SERIOUS):
DIGITAL INPUT VOLTAGE Hazard at time 79.2000743ms
  Device: X$AA2_AtoD1.O1
  Voltage V(AA2,$G_DGND)= 7.0097 is beyond the ranges defined in model DO74


DIGITAL Message ID#563 (SERIOUS):
DIGITAL INPUT VOLTAGE Hazard at time 79.2500742ms
  Device: X$AA1_AtoD1.O1
  Voltage V(AA1,$G_DGND)= 7.0260 is beyond the ranges defined in model DO74


DIGITAL Message ID#564 (SERIOUS):
DIGITAL INPUT VOLTAGE Hazard at time 79.3000743ms
  Device: X$AA2_AtoD1.O1
  Voltage V(AA2,$G_DGND)= 7.0110 is beyond the ranges defined in model DO74


DIGITAL Message ID#565 (SERIOUS):
DIGITAL INPUT VOLTAGE Hazard at time 79.3500743ms
  Device: X$AA1_AtoD1.O1
  Voltage V(AA1,$G_DGND)= 7.0259 is beyond the ranges defined in model DO74


DIGITAL Message ID#566 (SERIOUS):
DIGITAL INPUT VOLTAGE Hazard at time 79.4000742ms
  Device: X$AA2_AtoD1.O1
  Voltage V(AA2,$G_DGND)= 7.0231 is beyond the ranges defined in model DO74


DIGITAL Message ID#567 (SERIOUS):
DIGITAL INPUT VOLTAGE Hazard at time 79.4500743ms
  Device: X$AA1_AtoD1.O1
  Voltage V(AA1,$G_DGND)= 7.0259 is beyond the ranges defined in model DO74


DIGITAL Message ID#568 (SERIOUS):
DIGITAL INPUT VOLTAGE Hazard at time 79.5000743ms
  Device: X$AA2_AtoD1.O1
  Voltage V(AA2,$G_DGND)= 7.0138 is beyond the ranges defined in model DO74


DIGITAL Message ID#569 (SERIOUS):
DIGITAL INPUT VOLTAGE Hazard at time 79.5500742ms
  Device: X$AA1_AtoD1.O1
  Voltage V(AA1,$G_DGND)= 7.0260 is beyond the ranges defined in model DO74


DIGITAL Message ID#570 (SERIOUS):
DIGITAL INPUT VOLTAGE Hazard at time 79.6000743ms
  Device: X$AA2_AtoD1.O1
  Voltage V(AA2,$G_DGND)= 7.0097 is beyond the ranges defined in model DO74


DIGITAL Message ID#571 (SERIOUS):
DIGITAL INPUT VOLTAGE Hazard at time 79.6500742ms
  Device: X$AA1_AtoD1.O1
  Voltage V(AA1,$G_DGND)= 7.0254 is beyond the ranges defined in model DO74


DIGITAL Message ID#572 (SERIOUS):
DIGITAL INPUT VOLTAGE Hazard at time 79.7000743ms
  Device: X$AA2_AtoD1.O1
  Voltage V(AA2,$G_DGND)= 7.0262 is beyond the ranges defined in model DO74


DIGITAL Message ID#573 (SERIOUS):
DIGITAL INPUT VOLTAGE Hazard at time 79.7500742ms
  Device: X$AA1_AtoD1.O1
  Voltage V(AA1,$G_DGND)= 7.0260 is beyond the ranges defined in model DO74


DIGITAL Message ID#574 (SERIOUS):
DIGITAL INPUT VOLTAGE Hazard at time 79.8000743ms
  Device: X$AA2_AtoD1.O1
  Voltage V(AA2,$G_DGND)= 7.0141 is beyond the ranges defined in model DO74


DIGITAL Message ID#575 (SERIOUS):
DIGITAL INPUT VOLTAGE Hazard at time 79.8500743ms
  Device: X$AA1_AtoD1.O1
  Voltage V(AA1,$G_DGND)= 7.0259 is beyond the ranges defined in model DO74


DIGITAL Message ID#576 (SERIOUS):
DIGITAL INPUT VOLTAGE Hazard at time 79.9000744ms
  Device: X$AA2_AtoD1.O1
  Voltage V(AA2,$G_DGND)= 7.0259 is beyond the ranges defined in model DO74


DIGITAL Message ID#577 (SERIOUS):
DIGITAL INPUT VOLTAGE Hazard at time 79.9500742ms
  Device: X$AA1_AtoD1.O1
  Voltage V(AA1,$G_DGND)= 7.0261 is beyond the ranges defined in model DO74



          JOB CONCLUDED

          TOTAL JOB TIME          107.77
