
**** 05/06/19 22:39:07 ********* PSpice 9.2 (Mar 2000) ******** ID# 1 ********

 * D:\GIT\MAI\viser\modeling\double\SimmetrCM.sch


 ****     CIRCUIT DESCRIPTION


******************************************************************************




* Schematics Version 9.2
* Mon May 06 22:39:05 2019



** Analysis setup **
.tran 0ns 80m 0 1.57u SKIPBP
.OPTIONS ABSTOL=1uA
.OPTIONS DIGINITSTATE=2
.OPTIONS DIGIOLVL=1
.OPTIONS ITL4=70
.OPTIONS RELTOL=0.01


* From [PSPICE NETLIST] section of d:\Program Files\Orcad\PSpice\PSpice.ini:
.lib "D:\Program Files\Orcad\PSpice\UserLib\OPA_2.lib"
.lib "D:\Program Files\Orcad\PSpice\UserLib\MyLib.lib"
.lib "nom.lib"

.INC "SimmetrCM.net"



**** INCLUDING SimmetrCM.net ****
* Schematics Netlist *



X_S1    AA1 0 $N_0001 $N_0002 SimmetrCM_S1 
D_D1         $N_0002 $N_0001 Dbreak 
X_S3    AA2 0 $N_0003 $N_0004 SimmetrCM_S3 
D_D3         $N_0004 $N_0003 Dbreak 
D_D4         I_sence $N_0004 Dbreak 
X_S4    AA1 0 $N_0004 I_sence SimmetrCM_S4 
D_D2         I_sence $N_0002 Dbreak 
X_S2    AA2 0 $N_0002 I_sence SimmetrCM_S2 
R_R2         $N_0005 I_sence  1k  
C_C1         0 $N_0005  0.5n  
C_C3         0 $N_0006  1u  
C_C4         0 $N_0007  1n  
R_R3         $N_0008 0  500k  
V_V2         $N_0009 0 15
C_C5         0 $N_0010  500p  
R_R6         $N_0012 $N_0011  50k  
C_C6         $N_0013 $N_0011  100p  
C_C7         $N_0013 $N_0012  1n  
R_R7         $N_0014 $N_0013  5k  
X_U1         $N_0013 $N_0006 $N_0011 $N_0008 $N_0007 $N_0010 $N_0015 $N_0005 0
+  AA1 0 $N_0009 AA2 $N_0009 $N_0006 SG1825 
+ PARAMS: PERIOD={1/20k} DEADTIME=5e-8
C_C10         0 $N_0013  1n  
C_C2         0 $N_0015  100p  
R_R9         $N_0017 $N_0014  10k  
C_C8         0 $N_0018  100u  
R_R19         $N_0018 $N_0014  32k  
C_C9         $N_0017 $N_0018  300p  
R_R18         $N_0014 0  5.1k  
R_R1         0 I_sence  600m  
R_R8         $N_0019 0  3m  
V_V1         $N_0001 0 240
V_V8         $N_0018 $N_0019 25
L_L1         $N_0002 $N_0004  12m  
V_V3         $N_0003 0 150
D_D5         0 $N_0020 Dbreak 
D_D6         0 $N_0021 Dbreak 
L_L10         $N_0021 $N_0018  100u  
Kn_K1         L_L1 L_L2 
+ L_L9 L_L10   1
R_R22         $N_0010 I_sence  1k  
R_R21         $N_0010 $N_0006  4k  
L_L9         $N_0022 $N_0018  100u  
L_L2         $N_0020 $N_0023  1.4m  
R_R23         $N_0022 $N_0020  1m  
R_R24         $N_0021 $N_0023  1m  

.subckt SimmetrCM_S1 1 2 3 4  
S_S1         3 4 1 2 _S1
RS_S1         1 2 1G
.MODEL         _S1 VSWITCH Roff=1e6 Ron=1m Voff=0.0V Von=1.0V
.ends SimmetrCM_S1

.subckt SimmetrCM_S3 1 2 3 4  
S_S3         3 4 1 2 _S3
RS_S3         1 2 1G
.MODEL         _S3 VSWITCH Roff=1e6 Ron=1m Voff=0.0V Von=1.0V
.ends SimmetrCM_S3

.subckt SimmetrCM_S4 1 2 3 4  
S_S4         3 4 1 2 _S4
RS_S4         1 2 1G
.MODEL         _S4 VSWITCH Roff=1e6 Ron=1m Voff=0.0V Von=1.0V
.ends SimmetrCM_S4

.subckt SimmetrCM_S2 1 2 3 4  
S_S2         3 4 1 2 _S2
RS_S2         1 2 1G
.MODEL         _S2 VSWITCH Roff=1e6 Ron=1m Voff=0.0V Von=1.0V
.ends SimmetrCM_S2

**** RESUMING SimmetrCM.cir ****
.PROBE V(*) I(*) W(*) D(*) NOISE(*) 


.END


**** Generated AtoD and DtoA Interfaces ****

*
* Analog/Digital interface for node $N_0008
*
* Moving X_U1.u99:OUT1 from analog node $N_0008 to new digital node $N_0008$DtoA
X$$N_0008_DtoA1
+ $N_0008$DtoA
+ $N_0008
+ X_U1.DPWR
+ X_U1.DGND
+ DtoA_STD
+       PARAMS: DRVH=  96.4   DRVL= 104    CAPACITANCE=   0     
*
* Analog/Digital interface for node X_U1.xoutst.31
*
* Moving X_U1.xoutst.un1:OUT1 from analog node X_U1.xoutst.31 to new digital node X_U1.xoutst.31$DtoA
X$X_U1.xoutst.31_DtoA1
+ X_U1.xoutst.31$DtoA
+ X_U1.xoutst.31
+ X_U1.DPWR
+ X_U1.DGND
+ dtoa_s_o1
+       PARAMS: DRVH=   1.0000E+06 DRVL=  60.6   CAPACITANCE=   0     
*
* Analog/Digital interface for node X_U1.xoutst.32
*
* Moving X_U1.xoutst.un2:OUT1 from analog node X_U1.xoutst.32 to new digital node X_U1.xoutst.32$DtoA
X$X_U1.xoutst.32_DtoA1
+ X_U1.xoutst.32$DtoA
+ X_U1.xoutst.32
+ X_U1.DPWR
+ X_U1.DGND
+ dtoa_s_o1
+       PARAMS: DRVH=   1.0000E+06 DRVL=  60.6   CAPACITANCE=   0     
*
* Analog/Digital interface for node X_U1.xoutst.33
*
* Moving X_U1.xoutst.un11:OUT1 from analog node X_U1.xoutst.33 to new digital node X_U1.xoutst.33$DtoA
X$X_U1.xoutst.33_DtoA1
+ X_U1.xoutst.33$DtoA
+ X_U1.xoutst.33
+ X_U1.DPWR
+ X_U1.DGND
+ dtoa_s_o1
+       PARAMS: DRVH=   1.0000E+06 DRVL=  60.6   CAPACITANCE=   0     
*
* Analog/Digital interface for node X_U1.xoutst.34
*
* Moving X_U1.xoutst.un22:OUT1 from analog node X_U1.xoutst.34 to new digital node X_U1.xoutst.34$DtoA
X$X_U1.xoutst.34_DtoA1
+ X_U1.xoutst.34$DtoA
+ X_U1.xoutst.34
+ X_U1.DPWR
+ X_U1.DGND
+ dtoa_s_o1
+       PARAMS: DRVH=   1.0000E+06 DRVL=  60.6   CAPACITANCE=   0     
*
* Analog/Digital interface for node X_U1.45
*
* Moving X_U1.uor2:OUT1 from analog node X_U1.45 to new digital node X_U1.45$DtoA
X$X_U1.45_DtoA1
+ X_U1.45$DtoA
+ X_U1.45
+ X_U1.DPWR
+ X_U1.DGND
+ DtoA_STD
+       PARAMS: DRVH=  96.4   DRVL= 104    CAPACITANCE=   0     
*
* Analog/Digital interface power supply subcircuits
*

X$DIGIFPWR 0 DIGIFPWR

**** 05/06/19 22:39:07 ********* PSpice 9.2 (Mar 2000) ******** ID# 1 ********

 * D:\GIT\MAI\viser\modeling\double\SimmetrCM.sch


 ****     Diode MODEL PARAMETERS


******************************************************************************




               Dbreak          X_U1.xbl1.x2.x1.dxea25 
          IS   10.000000E-15  800.000000E-18 
          RS     .1                          
         CJO  100.000000E-15                 


**** 05/06/19 22:39:07 ********* PSpice 9.2 (Mar 2000) ******** ID# 1 ********

 * D:\GIT\MAI\viser\modeling\double\SimmetrCM.sch


 ****     BJT MODEL PARAMETERS


******************************************************************************




               q_pwm           X_U1.xbl1.x2.x1.qxea25 
               NPN             NPN             
          IS    1.340000E-15  800.000000E-18 
          BF   65.62          100            
          NF    1               1            
         VAF   74.03                         
         IKF     .5385                       
         ISE   19.480000E-15                 
          NE    1.208                        
          BR    9.715           1            
          NR    1               1            
          RB   10                            
          RC    9                            
         CJE    2.010000E-12                 
         MJE     .377                        
         CJC    1.393000E-12                 
         MJC     .3416                       
          TF  408.800000E-12                 
         XTF    3                            
         VTF    1.7                          
         ITF     .6                          
          TR  100.000000E-12                 
         XTB    1.5                          
          CN    2.42            2.42         
           D     .87             .87         


**** 05/06/19 22:39:07 ********* PSpice 9.2 (Mar 2000) ******** ID# 1 ********

 * D:\GIT\MAI\viser\modeling\double\SimmetrCM.sch


 ****     Voltage Controlled Switch MODEL PARAMETERS


******************************************************************************




               X_S1._S1        X_S3._S3        X_S4._S4        X_S2._S2        
         RON    1.000000E-03    1.000000E-03    1.000000E-03    1.000000E-03 
        ROFF    1.000000E+06    1.000000E+06    1.000000E+06    1.000000E+06 
         VON    1               1               1               1            
        VOFF    0               0               0               0            


               sstop25         ssoftd25        
         RON    1               5.000000E+03 
        ROFF  100.000000E+06  100.000000E+06 
         VON   13               1            
        VOFF   12                .7          


**** 05/06/19 22:39:07 ********* PSpice 9.2 (Mar 2000) ******** ID# 1 ********

 * D:\GIT\MAI\viser\modeling\double\SimmetrCM.sch


 ****     Current Controlled Switch MODEL PARAMETERS


******************************************************************************




               X_U1.xoutst.x2.isw25 
         RON    1            
        ROFF  100.000000E+06 
         ION    1.5          
        IOFF    1.3          


**** 05/06/19 22:39:07 ********* PSpice 9.2 (Mar 2000) ******** ID# 1 ********

 * D:\GIT\MAI\viser\modeling\double\SimmetrCM.sch


 ****     Digital Input MODEL PARAMETERS


******************************************************************************




               dincone         DIN74           din74s_o1       
        FILE DSO_DTOA        DSO_DTOA        DSO_DTOA        
      FORMAT    6               6               6            
    TIMESTEP  100.000000E-12  100.000000E-12  100.000000E-12 
         CLO                                    1.000000E-12 
         CHI                                    1.000000E-12 
      S0NAME 0               0               0               
       S0TSW    3.500000E-09    3.500000E-09  100.000000E-12 
       S0RLO    1.000000E+03    7.13             .1          
       S0RHI    1             389              10.000000E+03 
      S1NAME 1               1               1               
       S1TSW    5.500000E-09    5.500000E-09  100.000000E-12 
       S1RLO    1             467             200.000000E+03 
       S1RHI    1.000000E+03  200             200.000000E+03 
      S2NAME X               X               x               
       S2TSW    3.500000E-09    3.500000E-09  100.000000E-12 
       S2RLO   42.9            42.9            34.6          
       S2RHI  116             116              98.4          
      S3NAME R               R               z               
       S3TSW    3.500000E-09    3.500000E-09  100.000000E-12 
       S3RLO   42.9            42.9           200.000000E+03 
       S3RHI  116             116             200.000000E+03 
      S4NAME F               F               R               
       S4TSW    3.500000E-09    3.500000E-09  100.000000E-12 
       S4RLO   42.9            42.9            34.6          
       S4RHI  116             116              98.4          
      S5NAME Z               Z               F               
       S5TSW    3.500000E-09    3.500000E-09  100.000000E-12 
       S5RLO  200.000000E+03  200.000000E+03   34.6          
       S5RHI  200.000000E+03  200.000000E+03   98.4          


**** 05/06/19 22:39:07 ********* PSpice 9.2 (Mar 2000) ******** ID# 1 ********

 * D:\GIT\MAI\viser\modeling\double\SimmetrCM.sch


 ****     Digital Output MODEL PARAMETERS


******************************************************************************




               X_U1.uvl        X_U1.uvlref     X_U1.cmp1825    X_U1.trig1825   
        FILE DSO_ATOD        DSO_ATOD        DSO_ATOD        DSO_ATOD        
      FORMAT    6               6               6               6            
     CHGONLY    1               1               1               1            
    TIMESTEP  100.000000E-12  100.000000E-12  100.000000E-12  100.000000E-12 
      S0NAME 0               0               0               0               
       S0VHI    9.8             4.2                                          
       S0VLO   -5              -1             -35             -35            
      S1NAME 1               1               1               1               
       S1VHI   50              10              70              70            
       S1VLO    9               4                                            


               X_U1.x15.cmp    X_U1.xbl1.x1.compwm 
        FILE DSO_ATOD        DSO_ATOD        
      FORMAT    6               6            
     CHGONLY    1               1            
    TIMESTEP  100.000000E-12  100.000000E-12 
      S0NAME 0               0               
       S0VLO  -20.000000E+03  -30            
      S1NAME 1               1               
       S1VHI   20.000000E+03   30            


**** 05/06/19 22:39:07 ********* PSpice 9.2 (Mar 2000) ******** ID# 1 ********

 * D:\GIT\MAI\viser\modeling\double\SimmetrCM.sch


 ****     Digital Gate MODEL PARAMETERS


******************************************************************************




               d0_gate         
      TPLHMN    0            
      TPLHTY    0            
      TPLHMX    0            
      TPHLMN    0            
      TPHLTY    0            
      TPHLMX    0            


**** 05/06/19 22:39:07 ********* PSpice 9.2 (Mar 2000) ******** ID# 1 ********

 * D:\GIT\MAI\viser\modeling\double\SimmetrCM.sch


 ****     Digital Edge Triggered FF MODEL PARAMETERS


******************************************************************************




               d0_eff          
  TPCLKQLHMN    0            
  TPCLKQLHTY    0            
  TPCLKQLHMX    0            
  TPCLKQHLMN    0            
  TPCLKQHLTY    0            
  TPCLKQHLMX    0            
   TPPCQLHMN    0            
   TPPCQLHTY    0            
   TPPCQLHMX    0            
   TPPCQHLMN    0            
   TPPCQHLTY    0            
   TPPCQHLMX    0            
    TWCLKLMN    0            
    TWCLKLTY    0            
    TWCLKLMX    0            
    TWCLKHMN    0            
    TWCLKHTY    0            
    TWCLKHMX    0            
     TWPCLMN    0            
     TWPCLTY    0            
     TWPCLMX    0            
   TSUDCLKMN    0            
   TSUDCLKTY    0            
   TSUDCLKMX    0            
 TSUPCCLKHMN    0            
 TSUPCCLKHTY    0            
 TSUPCCLKHMX    0            
    THDCLKMN    0            
    THDCLKTY    0            
    THDCLKMX    0            
  TSUCECLKMN    0            
  TSUCECLKTY    0            
  TSUCECLKMX    0            
   THCECLKMN    0            
   THCECLKTY    0            
   THCECLKMX    0            


**** 05/06/19 22:39:07 ********* PSpice 9.2 (Mar 2000) ******** ID# 1 ********

 * D:\GIT\MAI\viser\modeling\double\SimmetrCM.sch


 ****     Digital Gated FF MODEL PARAMETERS


******************************************************************************




               d0_gff          
    TPDQLHMN    0            
    TPDQLHTY    0            
    TPDQLHMX    0            
    TPDQHLMN    0            
    TPDQHLTY    0            
    TPDQHLMX    0            
    TPGQLHMN    0            
    TPGQLHTY    0            
    TPGQLHMX    0            
    TPGQHLMN    0            
    TPGQHLTY    0            
    TPGQHLMX    0            
   TPPCQLHMN    0            
   TPPCQLHTY    0            
   TPPCQLHMX    0            
   TPPCQHLMN    0            
   TPPCQHLTY    0            
   TPPCQHLMX    0            
      TWGHMN    0            
      TWGHTY    0            
      TWGHMX    0            
     TWPCLMN    0            
     TWPCLTY    0            
     TWPCLMX    0            
     TSUDGMN    0            
     TSUDGTY    0            
     TSUDGMX    0            
   TSUPCGHMN    0            
   TSUPCGHTY    0            
   TSUPCGHMX    0            
      THDGMN    0            
      THDGTY    0            
      THDGMX    0            


**** 05/06/19 22:39:07 ********* PSpice 9.2 (Mar 2000) ******** ID# 1 ********

 * D:\GIT\MAI\viser\modeling\double\SimmetrCM.sch


 ****     Digital Delay Line MODEL PARAMETERS


******************************************************************************




               X_U1.xlog.dlmod 
       DLYMN    0            
       DLYTY   70.000000E-09 
       DLYMX   70.000000E-09 


**** 05/06/19 22:39:07 ********* PSpice 9.2 (Mar 2000) ******** ID# 1 ********

 * D:\GIT\MAI\viser\modeling\double\SimmetrCM.sch


 ****     Digital IO  MODEL PARAMETERS


******************************************************************************




               io_std          io_pwm_oc       io_stm          io_s_oc         
        DRVL  104              60.6             0              60.6          
        DRVH   96.4             1.000000E+06    0               1.000000E+06 
       AtoD1 AtoD_STD        atod_s                          AtoD_S          
       AtoD2 AtoD_STD_NX     atod_s_nx                       AtoD_S_NX       
       AtoD3 AtoD_STD        atod_s_e                        AtoD_S          
       AtoD4 AtoD_STD_NX     atod_s_nxe                      AtoD_S_NX       
       DtoA1 DtoA_STD        dtoa_s_o1       DtoA_STM        DtoA_S_OC       
       DtoA2 DtoA_STD        dtoa_s_o1       DtoA_STM        DtoA_S_OC       
       DtoA3 DtoA_STD        dtoa_s_o1       DtoA_STM        DtoA_S_OC       
       DtoA4 DtoA_STD        dtoa_s_o1       DtoA_STM        DtoA_S_OC       
      TSWHL1    1.511000E-09                                    1.305000E-09 
      TSWHL2    1.487000E-09                                    1.306000E-09 
      TSWHL3    1.511000E-09                                    1.305000E-09 
      TSWHL4    1.487000E-09                                    1.306000E-09 
      TSWLH1    3.517000E-09                                  483.000000E-12 
      TSWLH2    3.564000E-09                                  471.000000E-12 
      TSWLH3    3.517000E-09                                  483.000000E-12 
      TSWLH4    3.564000E-09                                  471.000000E-12 
       TPWRT  100.000000E+03  100.000000E+03  100.000000E+03  100.000000E+03 


**** 05/06/19 22:39:07 ********* PSpice 9.2 (Mar 2000) ******** ID# 1 ********

 * D:\GIT\MAI\viser\modeling\double\SimmetrCM.sch


 ****     SIMULATION ERRORS


******************************************************************************




DIGITAL Message ID#1 (SERIOUS):
DIGITAL INPUT VOLTAGE Hazard at time 0s
  Device: X_U1.x15.ocmp1
  Voltage V(X_U1.x15.pos_neg,0)=-10.00E+06 is beyond the ranges defined in model X_U1.x15.cmp


ERROR -- Convergence problem in transient analysis at Time =  1.528E-12
         Time step =  1.370E-15, minimum allowable step size =  8.000E-15

  These voltages failed to converge:

    V($N_0020)                =     11.39V  \     11.12V
    V($N_0021)                =     3.998V  \     3.918V
    V($N_0022)                =     3.990V  \     3.879V
    V($N_0023)                =    -3.402V  \    -3.324V

  These supply currents failed to converge:

    I(L_L1)                   =    2.528KA  \    2.474KA
    I(L_L10)                  =   -7.400KA  \   -7.242KA
    I(L_L9)                   =    7.399KA  \    7.242KA
    I(L_L2)                   =   -7.400KA  \   -7.242KA



  Last node voltages tried were:

 NODE   VOLTAGE     NODE   VOLTAGE     NODE   VOLTAGE     NODE   VOLTAGE


(  AA1)    6.4035  (  AA2)    6.6353  ($G_DGND)    0.0000                       

($G_DPWR)    5.0000                   ($N_0001)  240.0000                       

($N_0002)  215.9700                   ($N_0003)  150.0000                       

($N_0004)  173.4800                   ($N_0005) 597.9E-06                       

($N_0006)     .1000                   ($N_0007)    1.0000                       

($N_0008)     .0725                   ($N_0009)   15.0000                       

($N_0010) 597.9E-06                   ($N_0011)     .1000                       

($N_0012)     .0091                   ($N_0013)     .0091                       

($N_0014)     .0035                   ($N_0015) 138.4E-09                       

($N_0017) 128.1E-06                   ($N_0018) 128.1E-06                       

($N_0019)  -25.0000                   ($N_0020)   11.3890                       

($N_0021)    3.9980                   ($N_0022)    3.9902                       

($N_0023)   -3.4016                   (I_sence)  194.4600                       

(X_U1.45)     .3561                   (X_U1.57)     .1000                       

(X_U1.11a) 991.7E-06                  (X_U1.14a)     .0010                      

(X_U1.16a)    5.1000                  (X_U1.16b)    5.1000                      

(X_U1.one)    1.0000                  (X_U1.1111)    1.0000                     

(X_U1.1144)    1.4000                 (X_U1.conv)    1.0000                     

(X_U1.DGND)    0.0000                 (X_U1.DPWR)    5.0000                     

(X_U1.check)    5.0000                (X_U1.uvcompaa)    1.0072                 

(X_U1.x15.offs) 100.0E-06             (X_U1.x15.ramp1)    1.0000                

(X_U1.xoutst.14)   15.0000            (X_U1.xoutst.31)     .1759                

(X_U1.xoutst.32)    3.3038            (X_U1.xoutst.33)    3.2275                

(X_U1.xoutst.34)     .1654            (X_U1.xbl1.x1.67)    1.2506               

(X_U1.xbl1.x2.77)     .1000           (X_U1.x15.pos_neg) 100.0E-06              

(X_U1.xbl1.x2.110)    1.1700          (X_U1.xbl1.x2.x1.6)     .0262             

(X_U1.xbl1.x2.x1.7)     .0262         (X_U1.xbl1.x2.x1.8)     .0262             

(X_U1.xbl1.x2.x1.9)    0.0000         (X_U1.xbl1.x2.x1.10)    -.7387            

(X_U1.xbl1.x2.x1.11)    -.0724        (X_U1.xbl1.x2.x1.12)    -.0725            

(X_U1.xbl1.x2.x1.13)    -.6305        (X_U1.xbl1.x2.x1.14)    -.5535            

(X_U1.xbl1.x2.x1.53)    -.9700        (X_U1.xbl1.x2.x1.54)    1.1700            

(X_U1.xbl1.x2.x1.90)   -1.4770        (X_U1.xbl1.x2.x1.91)    2.5000            

(X_U1.xbl1.x2.x1.92)    -.7000        (X_U1.xbl1.x2.x1.99)     .6350            

(X_U1.xoutst.x2.140)    6.4035        (X_U1.xoutst.x2.141)    6.6353            

(X_U1.xoutst.x2.143)    0.0000        (X_U1.xoutst.x2.144)    0.0000            

(X_U1.xoutst.x2.731)    5.7133        (X_U1.xoutst.x2.732)    6.4372            

(X_U1.xoutst.x2.733)     .9034        (X_U1.xoutst.x2.734)     .3826            

(X_U1.xoutst.x2.735)   14.0000        (X_U1.xbl1.x2.x2.440)    1.0000           

(X_U1.xbl1.x2.x2.550)    0.0000       (X_U1.xbl1.x2.x2.conv)    1.0000      



 DGTL NODE : STATE  DGTL NODE : STATE  DGTL NODE : STATE  DGTL NODE : STATE


(X_U1.xoutst.33$DtoA) : Z             ( X_U1.46) : 0     ( X_U1.20) : 1         

( X_U1.49) : 0     ( X_U1.73) : 0     (X_U1.xoutst.34$DtoA) : 0                 

($N_0008$DtoA) : 0                    ( X_U1.21) : 0     (X_U1.xlog.17) : 1     

(X_U1.xoutst.31$DtoA) : 0             (X_U1.xlog.18) : 0                        

(X_U1.xlog.2) : 1  (X_U1.xlog.73z) : 0                                          

(X_U1.xoutst.32$DtoA) : Z             (X_U1.dclk) : 0    (X_U1.10011) : 0       

(X_U1.10012) : 0   ( X_U1.44) : 1     (X_U1.xbl1.x1.39) : 1                     

(X_U1.45$DtoA) : 1                    (X_U1.xlog.87) : 0                        

(X_U1.1001) : 1    

