
**** 12/01/15 20:45:35 ********* PSpice 9.2 (Mar 2000) ******** ID# 1 ********

 * C:\Program Files\Orcad\Work\2015-2016-30-406\shemapokursovomubezkz.sch


 ****     CIRCUIT DESCRIPTION


******************************************************************************




* Schematics Version 9.2
* Tue Dec 01 20:45:35 2015



** Analysis setup **
.tran 0.1ms 25ms
.OPTIONS ABSTOL=100uA
.OPTIONS ITL4=40
.OPTIONS VNTOL=100uV
.LIB "C:\Program Files\Orcad\Work\2015-2016-30-406\Schematic1.lib"
.LIB "C:\Program Files\Orcad\Work\2015-2016-30-406\shemapokursovomubezkz.lib"


* From [PSPICE NETLIST] section of C:\Program Files\Orcad\PSpice\PSpice.ini:
.lib "nom.lib"

.INC "shemapokursovomubezkz.net"



**** INCLUDING shemapokursovomubezkz.net ****
* Schematics Netlist *



Kn_K1         L_L1 L_L2 
+ L_L3 L_L4   0.999
L_L1         $N_0001 $N_0002  0.59mH  
L_L2         0 $N_0003  0.1mH  
L_L3         $N_0004 0  0.1mH  
L_L4         0 $N_0005  250uH  
X_U4         $N_0006 0 Sw_tClose PARAMS: tClose=200m ttran=1u Rclosed=0.01
+  Ropen=1Meg
M_M1         $N_0002 $N_0008 $N_0007 $N_0007 IRF720
X_U1         $N_0010 $N_0009 $N_0011 0 $N_0012 $N_0013 $N_0014 SG1844 
+ PARAMS: PERIOD=15.3u DEADTIME=0.5u
D_D3         $N_0016 $N_0017 Dbreak-X1 
D_D1         $N_0018 $N_0017 Dbreak-X1 
D_D2         0 $N_0018 Dbreak-X1 
D_D5         $N_0005 $N_0013 Dbreak-X1 
D_D6         $N_0005 $N_0019 Dbreak-X1 
D_D7         $N_0002 $N_0020 Dbreak-X 
D_D8         $N_0003 $N_0006 Dbreak-X1 
D_D9         $N_0021 $N_0004 Dbreak-X1 
D_D4         0 $N_0016 Dbreak-X1 
R_R2         $N_0001 $N_0013  51k  
R_R3         $N_0019 $N_0022  5.1k  
R_R4         0 $N_0022  1k  
R_R5         $N_0022 $N_0009  270  
R_R6         $N_0009 $N_0023  100k  
R_R7         $N_0020 $N_0001  10k  
R_R8         $N_0012 $N_0008  15  
R_R9         $N_0011 $N_0007  5.1k  
R_R10         0 $N_0008  2k  
R_R11         0 $N_0007  1  
C_C1         0 $N_0001  22u  
C_C2         0 $N_0013  3u IC=4.454 
C_C3         $N_0019 $N_0022  1n  
C_C4         0 $N_0019  20p  
C_C5         $N_0023 $N_0010  10n  
C_C6         0 $N_0014  100n  
C_C7         0 $N_0011  10n  
C_C8         $N_0020 $N_0001  0.1n  
C_C9         0 $N_0006  0.62m  
C_C10         $N_0021 0  0.62m  
V_V1         $N_0018 $N_0016  
+SIN 0 115V 400 0 0 0
R_R1         $N_0001 $N_0017  1  
R_R12         0 $N_0006  4.7  
R_R13         $N_0021 0  4.7  

**** RESUMING shemapokursovomubezkz.cir ****
.PROBE V(*) I(*) W(*) D(*) NOISE(*) 


.END


**** Generated AtoD and DtoA Interfaces ****

*
* Analog/Digital interface for node X_U1.x119.31
*
* Moving X_U1.x119.un1:OUT1 from analog node X_U1.x119.31 to new digital node X_U1.x119.31$DtoA
X$X_U1.x119.31_DtoA1
+ X_U1.x119.31$DtoA
+ X_U1.x119.31
+ X_U1.DPWR
+ X_U1.DGND
+ dtoa_s_o1
+       PARAMS: DRVH=   1.0000E+06 DRVL=  60.6   CAPACITANCE=   0     
*
* Analog/Digital interface for node X_U1.x119.33
*
* Moving X_U1.x119.un11:OUT1 from analog node X_U1.x119.33 to new digital node X_U1.x119.33$DtoA
X$X_U1.x119.33_DtoA1
+ X_U1.x119.33$DtoA
+ X_U1.x119.33
+ X_U1.DPWR
+ X_U1.DGND
+ dtoa_s_o1
+       PARAMS: DRVH=   1.0000E+06 DRVL=  60.6   CAPACITANCE=   0     
*
* Analog/Digital interface power supply subcircuits
*

X$DIGIFPWR 0 DIGIFPWR

**** 12/01/15 20:45:35 ********* PSpice 9.2 (Mar 2000) ******** ID# 1 ********

 * C:\Program Files\Orcad\Work\2015-2016-30-406\shemapokursovomubezkz.sch


 ****     Diode MODEL PARAMETERS


******************************************************************************




               Dbreak-X1       Dbreak-X        X_U1.x1.dn      
          IS  100.000000E-12  100.000000E-12   10.000000E-15 
          RS     .1              .1                          
         CJO  100.000000E-12  100.000000E-12                 


**** 12/01/15 20:45:35 ********* PSpice 9.2 (Mar 2000) ******** ID# 1 ********

 * C:\Program Files\Orcad\Work\2015-2016-30-406\shemapokursovomubezkz.sch


 ****     BJT MODEL PARAMETERS


******************************************************************************




               q_pwm           
               NPN             
          IS    1.340000E-15 
          BF   65.62         
          NF    1            
         VAF   74.03         
         IKF     .5385       
         ISE   19.480000E-15 
          NE    1.208        
          BR    9.715        
          NR    1            
          RB   10            
          RC    9            
         CJE    2.010000E-12 
         MJE     .377        
         CJC    1.393000E-12 
         MJC     .3416       
          TF  408.800000E-12 
         XTF    3            
         VTF    1.7          
         ITF     .6          
          TR  100.000000E-12 
         XTB    1.5          
          CN    2.42         
           D     .87         


**** 12/01/15 20:45:35 ********* PSpice 9.2 (Mar 2000) ******** ID# 1 ********

 * C:\Program Files\Orcad\Work\2015-2016-30-406\shemapokursovomubezkz.sch


 ****     MOSFET MODEL PARAMETERS


******************************************************************************




               IRF720          
               NMOS            
       LEVEL    3            
           L    2.000000E-06 
           W     .23         
         VTO    3.78         
          KP   20.580000E-06 
       GAMMA    0            
         PHI     .6          
      LAMBDA    0            
          RD    1.489        
          RS     .04138      
          RG    1.217        
         RDS    1.778000E+06 
          IS  177.900000E-12 
          JS    0            
          PB     .8          
        PBSW     .8          
         CBD  415.400000E-12 
          CJ    0            
        CJSW    0            
          TT  535.000000E-09 
        CGSO    1.676000E-09 
        CGDO  149.300000E-12 
        CGBO    0            
         TOX  100.000000E-09 
          XJ    0            
       UCRIT   10.000000E+03 
       DELTA    0            
         ETA    0            
      DIOMOD    1            
         VFB    0            
        LETA    0            
        WETA    0            
          U0    0            
        TEMP    0            
         VDD    0            
       XPART    0            


**** 12/01/15 20:45:35 ********* PSpice 9.2 (Mar 2000) ******** ID# 1 ********

 * C:\Program Files\Orcad\Work\2015-2016-30-406\shemapokursovomubezkz.sch


 ****     Voltage Controlled Switch MODEL PARAMETERS


******************************************************************************




               X_U4.Smod       X_U1.sofferr    X_U1.soffmod    
         RON     .01           50             100            
        ROFF    1.000000E+06  100.000000E+06  100.000000E+06 
         VON    1                .1              .1          
        VOFF    0                .9              .9          


**** 12/01/15 20:45:35 ********* PSpice 9.2 (Mar 2000) ******** ID# 1 ********

 * C:\Program Files\Orcad\Work\2015-2016-30-406\shemapokursovomubezkz.sch


 ****     Current Controlled Switch MODEL PARAMETERS


******************************************************************************




               X_U1.x119.x2.isw184s 
         RON    1            
        ROFF  100.000000E+06 
         ION    1            
        IOFF     .9          


**** 12/01/15 20:45:35 ********* PSpice 9.2 (Mar 2000) ******** ID# 1 ********

 * C:\Program Files\Orcad\Work\2015-2016-30-406\shemapokursovomubezkz.sch


 ****     Digital Input MODEL PARAMETERS


******************************************************************************




               dincone         din74s_o1       
        FILE DSO_DTOA        DSO_DTOA        
      FORMAT    6               6            
    TIMESTEP  100.000000E-12  100.000000E-12 
         CLO                    1.000000E-12 
         CHI                    1.000000E-12 
      S0NAME 0               0               
       S0TSW    3.500000E-09  100.000000E-12 
       S0RLO    1.000000E+03     .1          
       S0RHI    1              10.000000E+03 
      S1NAME 1               1               
       S1TSW    5.500000E-09  100.000000E-12 
       S1RLO    1             200.000000E+03 
       S1RHI    1.000000E+03  200.000000E+03 
      S2NAME X               x               
       S2TSW    3.500000E-09  100.000000E-12 
       S2RLO   42.9            34.6          
       S2RHI  116              98.4          
      S3NAME R               z               
       S3TSW    3.500000E-09  100.000000E-12 
       S3RLO   42.9           200.000000E+03 
       S3RHI  116             200.000000E+03 
      S4NAME F               R               
       S4TSW    3.500000E-09  100.000000E-12 
       S4RLO   42.9            34.6          
       S4RHI  116              98.4          
      S5NAME Z               F               
       S5TSW    3.500000E-09  100.000000E-12 
       S5RLO  200.000000E+03   34.6          
       S5RHI  200.000000E+03   98.4          


**** 12/01/15 20:45:35 ********* PSpice 9.2 (Mar 2000) ******** ID# 1 ********

 * C:\Program Files\Orcad\Work\2015-2016-30-406\shemapokursovomubezkz.sch


 ****     Digital Output MODEL PARAMETERS


******************************************************************************




               X_U1.uvcomp     X_U1.compmod    X_U1.x15.cmp    
        FILE DSO_ATOD        DSO_ATOD        DSO_ATOD        
      FORMAT    6               6               6            
     CHGONLY    1               1               1            
    TIMESTEP  100.000000E-12  100.000000E-12  100.000000E-12 
      S0NAME 0               0               0               
       S0VHI  100                                            
       S0VLO   10            -300             -20.000000E+03 
      S1NAME 1               1               1               
       S1VHI   16             300              20.000000E+03 
       S1VLO  -30                                            


**** 12/01/15 20:45:35 ********* PSpice 9.2 (Mar 2000) ******** ID# 1 ********

 * C:\Program Files\Orcad\Work\2015-2016-30-406\shemapokursovomubezkz.sch


 ****     Digital Gate MODEL PARAMETERS


******************************************************************************




               X_U1.x119.d0_gate1              d0_gate         
      TPLHMN   16.000000E-09                    0            
      TPLHTY   40.000000E-09                    0            
      TPLHMX   64.000000E-09                    0            
      TPHLMN   16.000000E-09                    0            
      TPHLTY   40.000000E-09                    0            
      TPHLMX   64.000000E-09                    0            


**** 12/01/15 20:45:35 ********* PSpice 9.2 (Mar 2000) ******** ID# 1 ********

 * C:\Program Files\Orcad\Work\2015-2016-30-406\shemapokursovomubezkz.sch


 ****     Digital Edge Triggered FF MODEL PARAMETERS


******************************************************************************




               d0_eff          
  TPCLKQLHMN    0            
  TPCLKQLHTY    0            
  TPCLKQLHMX    0            
  TPCLKQHLMN    0            
  TPCLKQHLTY    0            
  TPCLKQHLMX    0            
   TPPCQLHMN    0            
   TPPCQLHTY    0            
   TPPCQLHMX    0            
   TPPCQHLMN    0            
   TPPCQHLTY    0            
   TPPCQHLMX    0            
    TWCLKLMN    0            
    TWCLKLTY    0            
    TWCLKLMX    0            
    TWCLKHMN    0            
    TWCLKHTY    0            
    TWCLKHMX    0            
     TWPCLMN    0            
     TWPCLTY    0            
     TWPCLMX    0            
   TSUDCLKMN    0            
   TSUDCLKTY    0            
   TSUDCLKMX    0            
 TSUPCCLKHMN    0            
 TSUPCCLKHTY    0            
 TSUPCCLKHMX    0            
    THDCLKMN    0            
    THDCLKTY    0            
    THDCLKMX    0            
  TSUCECLKMN    0            
  TSUCECLKTY    0            
  TSUCECLKMX    0            
   THCECLKMN    0            
   THCECLKTY    0            
   THCECLKMX    0            


**** 12/01/15 20:45:35 ********* PSpice 9.2 (Mar 2000) ******** ID# 1 ********

 * C:\Program Files\Orcad\Work\2015-2016-30-406\shemapokursovomubezkz.sch


 ****     Digital Gated FF MODEL PARAMETERS


******************************************************************************




               d0_gff          
    TPDQLHMN    0            
    TPDQLHTY    0            
    TPDQLHMX    0            
    TPDQHLMN    0            
    TPDQHLTY    0            
    TPDQHLMX    0            
    TPGQLHMN    0            
    TPGQLHTY    0            
    TPGQLHMX    0            
    TPGQHLMN    0            
    TPGQHLTY    0            
    TPGQHLMX    0            
   TPPCQLHMN    0            
   TPPCQLHTY    0            
   TPPCQLHMX    0            
   TPPCQHLMN    0            
   TPPCQHLTY    0            
   TPPCQHLMX    0            
      TWGHMN    0            
      TWGHTY    0            
      TWGHMX    0            
     TWPCLMN    0            
     TWPCLTY    0            
     TWPCLMX    0            
     TSUDGMN    0            
     TSUDGTY    0            
     TSUDGMX    0            
   TSUPCGHMN    0            
   TSUPCGHTY    0            
   TSUPCGHMX    0            
      THDGMN    0            
      THDGTY    0            
      THDGMX    0            


**** 12/01/15 20:45:35 ********* PSpice 9.2 (Mar 2000) ******** ID# 1 ********

 * C:\Program Files\Orcad\Work\2015-2016-30-406\shemapokursovomubezkz.sch


 ****     Digital Delay Line MODEL PARAMETERS


******************************************************************************




               X_U1.dlmod      X_U1.dlmod1     
       DLYMN    0               0            
       DLYTY    5.000000E-09  150.000000E-09 
       DLYMX    5.000000E-09  150.000000E-09 


**** 12/01/15 20:45:35 ********* PSpice 9.2 (Mar 2000) ******** ID# 1 ********

 * C:\Program Files\Orcad\Work\2015-2016-30-406\shemapokursovomubezkz.sch


 ****     Digital IO  MODEL PARAMETERS


******************************************************************************




               io_std          io_stm          io_pwm_oc       io_s_oc         
        DRVL  104               0              60.6            60.6          
        DRVH   96.4             0               1.000000E+06    1.000000E+06 
       AtoD1 AtoD_STD                        atod_s          AtoD_S          
       AtoD2 AtoD_STD_NX                     atod_s_nx       AtoD_S_NX       
       AtoD3 AtoD_STD                        atod_s_e        AtoD_S          
       AtoD4 AtoD_STD_NX                     atod_s_nxe      AtoD_S_NX       
       DtoA1 DtoA_STD        DtoA_STM        dtoa_s_o1       DtoA_S_OC       
       DtoA2 DtoA_STD        DtoA_STM        dtoa_s_o1       DtoA_S_OC       
       DtoA3 DtoA_STD        DtoA_STM        dtoa_s_o1       DtoA_S_OC       
       DtoA4 DtoA_STD        DtoA_STM        dtoa_s_o1       DtoA_S_OC       
      TSWHL1    1.511000E-09                                    1.305000E-09 
      TSWHL2    1.487000E-09                                    1.306000E-09 
      TSWHL3    1.511000E-09                                    1.305000E-09 
      TSWHL4    1.487000E-09                                    1.306000E-09 
      TSWLH1    3.517000E-09                                  483.000000E-12 
      TSWLH2    3.564000E-09                                  471.000000E-12 
      TSWLH3    3.517000E-09                                  483.000000E-12 
      TSWLH4    3.564000E-09                                  471.000000E-12 
       TPWRT  100.000000E+03  100.000000E+03  100.000000E+03  100.000000E+03 


**** 12/01/15 20:45:35 ********* PSpice 9.2 (Mar 2000) ******** ID# 1 ********

 * C:\Program Files\Orcad\Work\2015-2016-30-406\shemapokursovomubezkz.sch


 ****     INITIAL TRANSIENT SOLUTION       TEMPERATURE =   27.000 DEG C


******************************************************************************



 NODE   VOLTAGE     NODE   VOLTAGE     NODE   VOLTAGE     NODE   VOLTAGE


(X_U4.3)    0.0000 ($G_DGND)    0.0000                   ($G_DPWR)    5.0000    

($N_0001)    -.3365                   ($N_0002)    -.3365                       

($N_0003)    0.0000                   ($N_0004)    0.0000                       

($N_0005)    0.0000                   ($N_0006)-355.7E-27                       

($N_0007)-79.15E-06                   ($N_0008)   -4.3934                       

($N_0009)     .0032                   ($N_0010)    4.3945                       

($N_0011)-79.14E-06                   ($N_0012)   -4.4263                       

($N_0013)   -4.3800                   ($N_0014)     .0050                       

($N_0016)    -.1683                   ($N_0017)    -.3365                       

($N_0018)    -.1683                   ($N_0019)     .0025                       

($N_0020)    -.3365                   ($N_0021)-31.63E-27                       

($N_0022)     .0025                   ($N_0023)     .0032                       

(X_U1.8a)     .0050                   (X_U1.8b) 2.498E-12                       

(X_U1.p7)     .7000                   (X_U1.eao)     .9972                      

(X_U1.one)    1.0000                  (X_U1.ref)     .0050                      

(X_U1.DGND)    0.0000                 (X_U1.DPWR)    5.0000                     

(X_U1.eaoa)     .9972                 (X_U1.ramp)    1.0000                     

(X_U1.x1.4)   15.0000                 (X_U1.x1.5)   13.6310                     

(X_U1.x1.6)   13.0000                 (X_U1.x1.7)    1.0000                     

(X_U1.x1.10)   13.6310                (X_U1.intref)    2.5000                   

(X_U1.x119.31)    -.0491              (X_U1.x119.33)   -4.3793                  

(X_U1.xll1.1a)     .0050              (X_U1.xll2.1a) 2.498E-12                  

(X_U1.uvcompaa) 999.0E-06             (X_U1.x119.14a)   -4.3800                 

(X_U1.x15.offs) 100.0E-06             (X_U1.x15.ramp1)    1.0000                

(X_U1.xload3.1a)-79.14E-06            (X_U1.x119.x2.140)   -4.4263              

(X_U1.x119.x2.143)    0.0000          (X_U1.x119.x2.731)   -2.9850              

(X_U1.x119.x2.733)   -4.3793          (X_U1.x119.x2.735)   -5.3800              

(X_U1.x15.pos_neg) 100.0E-06          



 DGTL NODE : STATE  DGTL NODE : STATE  DGTL NODE : STATE  DGTL NODE : STATE


( X_U1.qb) : 0     ( X_U1.87) : 0     (X_U1.setz) : 1    (X_U1.reset) : 0       

( X_U1.20) : 0     (X_U1.qbd) : 0     (X_U1.x119.31$DtoA) : 0                   

(X_U1.uvlo) : 1    ( X_U1.21) : 1     (X_U1.x119.33$DtoA) : Z                   

(X_U1.222) : 1     (  X_U1.q) : 1     (X_U1.set) : 1     




    VOLTAGE SOURCE CURRENTS
    NAME         CURRENT

    V_V1         0.000E+00
    X_U4.V1      0.000E+00
    X_U1.v8a     4.995E-12
    X_U1.v2p5   -2.497E-06
    X_U1.v_clkset   0.000E+00
    X_U1.v1     -9.990E-04
    X_U1.vp7     7.389E-02
    X_U1.xdigpwr.VDPWR  -5.568E-04
    X_U1.xdigpwr.VDGND  -5.365E-01
    X_U1.x1.v4   3.895E-04
    X_U1.x1.vo  -3.895E-04
    X_U1.x1.vn   1.264E-11
    X_U1.x15.vser   0.000E+00
    X_U1.x15.vofset  -1.000E-04
    X_U1.x119.x2.vs1  -4.646E-02
    X_U1.x119.x2.vs3  -4.518E-12
    X_U1.x119.x2.vdrop  -1.052E-01
    X$DIGIFPWR.VDPWR  -5.000E-06
    X$DIGIFPWR.VDGND  -5.000E-06

    TOTAL POWER DISSIPATION   5.22E-02  WATTS


ERROR -- Convergence problem in transient analysis at Time =  186.0E-06
         Time step =  18.95E-15, minimum allowable step size =  25.00E-15

  These voltages failed to converge:

    V($N_0014)                =     1.591V  \   985.86mV
    V(X_U1.8a)                =     1.591V  \   985.86mV
    V(X_U1.8b)                =     3.395V  \     4.000V

  These supply currents failed to converge:

    I(X_U1.eref1)             =  -155.18mA  \   798.59KA
    I(X_U1.edeg)              =   -2.800mA  \   -3.405mA
    I(X_U1.v8a)               =   153.68mA  \  -798.59KA
    I(X_U1.xdigpwr.VDGND)     =   643.32mA  \   798.59KA

  These devices failed to converge:
    X_U1.edeg 



  Last node voltages tried were:

 NODE   VOLTAGE     NODE   VOLTAGE     NODE   VOLTAGE     NODE   VOLTAGE


(X_U4.3)    0.0000 ($G_DGND)    0.0000                   ($G_DPWR)    5.0000    

($N_0001)   43.5470                   ($N_0002)   69.2920                       

($N_0003)   10.4770                   ($N_0004)  -10.4770                       

($N_0005)   16.5570                   ($N_0006)    7.5706                       

($N_0007)     .2268                   ($N_0008)    1.5695                       

($N_0009)    2.6313                   ($N_0010)    5.2630                       

($N_0011) 58.09E-06                   ($N_0012)    5.1063                       

($N_0013)   16.0000                   ($N_0014)    1.5911                       

($N_0016)   -1.2247                   ($N_0017)   49.3830                       

($N_0018)   50.6070                   ($N_0019)   16.1140                       

($N_0020)   68.8140                   ($N_0021)   -7.5706                       

($N_0022)    2.6352                   ($N_0023)    1.2171                       

(X_U1.8a)    1.5911                   (X_U1.8b)    3.3947                       

(X_U1.p7)     .7000                   (X_U1.eao)    1.0000                      

(X_U1.one)    1.0000                  (X_U1.ref)    4.9859                      

(X_U1.DGND)    0.0000                 (X_U1.DPWR)    5.0000                     

(X_U1.eaoa)     .3412                 (X_U1.ramp)    1.3297                     

(X_U1.x1.4)   15.0000                 (X_U1.x1.5)    5.2411                     

(X_U1.x1.6)   13.0000                 (X_U1.x1.7)    1.0000                     

(X_U1.x1.10)    5.2411                (X_U1.intref)    2.5000                   

(X_U1.x119.31)   14.5710              (X_U1.x119.33)     .1597                  

(X_U1.xll1.1a)     .0995              (X_U1.xll2.1a)     .5946                  

(X_U1.uvcompaa)     .9972             (X_U1.x119.14a)   16.0000                 

(X_U1.x15.offs) 100.0E-06             (X_U1.x15.ramp1)    1.3297                

(X_U1.xload3.1a) 48.24E-06            (X_U1.x119.x2.140)    5.1063              

(X_U1.x119.x2.143)    0.0000          (X_U1.x119.x2.731)    7.4283              

(X_U1.x119.x2.733)     .7678          (X_U1.x119.x2.735)   15.0000              

(X_U1.x15.pos_neg)   -1.3522          



 DGTL NODE : STATE  DGTL NODE : STATE  DGTL NODE : STATE  DGTL NODE : STATE


( X_U1.qb) : 0     ( X_U1.87) : 1     (X_U1.setz) : 0    (X_U1.reset) : 0       

( X_U1.20) : 0     (X_U1.qbd) : 0     (X_U1.x119.31$DtoA) : Z                   

(X_U1.uvlo) : 0    ( X_U1.21) : 1     (X_U1.x119.33$DtoA) : 0                   

(X_U1.222) : 1     (  X_U1.q) : 1     (X_U1.set) : 0     

