
**** 03/29/19 22:18:50 ********* PSpice 9.2 (Mar 2000) ******** ID# 1 ********

 * D:\GIT\MAI\viser\modeling\half_bridge\model\shemapokursovomubezkz.sch


 ****     CIRCUIT DESCRIPTION


******************************************************************************




* Schematics Version 9.2
* Fri Mar 29 22:18:50 2019



** Analysis setup **
.tran 0.1ms 25ms
.OPTIONS ABSTOL=100uA
.OPTIONS ITL4=40
.OPTIONS VNTOL=100uV
.LIB "D:\GIT\MAI\viser\modeling\half_bridge\model\shemapokursovomubezkz.lib"


* From [PSPICE NETLIST] section of d:\Program Files\Orcad\PSpice\PSpice.ini:
.lib "D:\Program Files\Orcad\PSpice\UserLib\OPA_2.lib"
.lib "D:\Program Files\Orcad\PSpice\UserLib\MyLib.lib"
.lib "nom.lib"

.INC "shemapokursovomubezkz.net"



**** INCLUDING shemapokursovomubezkz.net ****
* Schematics Netlist *



Kn_K1         L_L1 L_L2 
+ L_L3 L_L4   0.999
L_L1         $N_0001 $N_0002  0.59mH  
L_L2         0 $N_0003  0.1mH  
L_L3         $N_0004 0  0.1mH  
L_L4         0 $N_0005  250uH  
X_U4         $N_0006 0 Sw_tClose PARAMS: tClose=200m ttran=1u Rclosed=0.01
+  Ropen=1Meg
M_M1         $N_0002 $N_0008 $N_0007 $N_0007 IRF720
D_D3         $N_0009 $N_0010 Dbreak-X1 
D_D1         $N_0011 $N_0010 Dbreak-X1 
D_D2         0 $N_0011 Dbreak-X1 
D_D5         $N_0005 $N_0012 Dbreak-X1 
D_D6         $N_0005 $N_0013 Dbreak-X1 
D_D7         $N_0002 $N_0014 Dbreak-X 
D_D8         $N_0003 $N_0006 Dbreak-X1 
D_D9         $N_0015 $N_0004 Dbreak-X1 
D_D4         0 $N_0009 Dbreak-X1 
R_R2         $N_0001 $N_0012  51k  
R_R3         $N_0013 $N_0016  5.1k  
R_R4         0 $N_0016  1k  
R_R5         $N_0016 $N_0017  270  
R_R6         $N_0017 $N_0018  100k  
R_R7         $N_0014 $N_0001  10k  
R_R8         $N_0019 $N_0008  15  
R_R9         $N_0020 $N_0007  5.1k  
V_V1         $N_0011 $N_0009  
+SIN 0 115V 400 0 0 0
R_R1         $N_0001 $N_0010  1  
R_R12         0 $N_0006  4.3  
R_R13         $N_0015 0  4.3  
C_C1         0 $N_0001  22u  
C_C2         0 $N_0012  3u IC=4.454 
C_C9         0 $N_0006  0.62m  
C_C10         $N_0015 0  0.62m  
C_C3         $N_0013 $N_0016  1n  
C_C4         0 $N_0013  20p  
C_C5         $N_0018 $N_0021  10n  
C_C8         $N_0014 $N_0001  0.1n  
X_U1         $N_0021 $N_0017 $N_0020 0 $N_0019 $N_0012 $N_0022 SG1844 
+ PARAMS: PERIOD=15.3u DEADTIME=0.5u
C_C7         0 $N_0020  10n  
R_R10         0 $N_0008  2k  
R_R11         0 $N_0007  1  
C_C6         0 $N_0022  100n  

**** RESUMING shemapokursovomubezkz.cir ****
.PROBE V(*) I(*) W(*) D(*) NOISE(*) 


.END

WARNING -- Unable to find library file 
Making new index file shemapokursovomubezkz.ind for library file shemapokursovomubezkz.lib
Index has 1 entries from 1 file(s).


ERROR -- Model Dbreak-X used by D_D7 is undefined