
**** 02/04/19 15:07:24 ********* PSpice 9.2 (Mar 2000) ******** ID# 1 ********

 * C:\Workspace_MAI\DCDC\PSE38\SimmetrCM.sch


 ****     CIRCUIT DESCRIPTION


******************************************************************************




* Schematics Version 9.2
* Mon Feb 04 15:07:22 2019



** Analysis setup **
.tran 0ns 100m


* From [PSPICE NETLIST] section of C:\Program Files\Orcad\PSpice\PSpice.ini:
.lib "nom.lib"

.INC "SimmetrCM.net"



**** INCLUDING SimmetrCM.net ****
* Schematics Netlist *



D_D2         I_sence $N_0001 Dbreak 
D_D4         I_sence $N_0002 Dbreak 
D_D1         $N_0001 $N_0003 Dbreak 
D_D3         $N_0002 $N_0004 Dbreak 
L_L1         $N_0001 $N_0002  160  
X_S1    AA1 0 $N_0003 $N_0001 SimmetrCM_S1 
X_S2    AA2 0 $N_0001 I_sence SimmetrCM_S2 
X_S3    AA2 0 $N_0004 $N_0002 SimmetrCM_S3 
X_S4    AA1 0 $N_0002 I_sence SimmetrCM_S4 
R_R2         $N_0005 I_sence  1k  
R_R1         0 I_sence  0.1  
V_V1         $N_0003 0 DC=300V
V_V2         $N_0006 0 DC=15V
C_C1         0 $N_0005  0.5n  
V_V3         $N_0004 0 DC=300V
C_C2         0 $N_0007  100p  
C_C3         0 $N_0008  1n  
C_C4         0 $N_0009  1n  
R_R3         $N_0010 0  500k  
C_C5         0 $N_0011  500p  
R_R5         I_sence $N_0011  1k  
R_R4         $N_0011 $N_0008  4k  
R_R6         $N_0013 $N_0012  50k  
C_C7         $N_0014 $N_0013  1n  
X_U1         $N_0014 $N_0008 $N_0012 $N_0010 $N_0009 $N_0011 $N_0007 $N_0005 0
+  AA1 0 $N_0006 AA2 $N_0006 $N_0008 SG1825 
+ PARAMS: PERIOD={1/10k} DEADTIME=5e-8
C_C6         $N_0014 $N_0012  100p  
R_R9         $N_0017 $N_0016  10k  
R_R11         $N_0016 0  5k  
D_D6         0 $N_0018 Dbreak 
R_R7         $N_0016 $N_0014  5k  
R_R8         $N_0019 0  10  
C_C8         0 $N_0019  100u  
R_R10         $N_0019 $N_0016  100k  
C_C9         $N_0017 $N_0019  300p  
D_D5         0 $N_0020 Dbreak 
D_D7         $N_0020 $N_0019 Dbreak 
D_D8         $N_0018 $N_0019 Dbreak 
L_L2         $N_0021 $N_0020  160  
R_R12         $N_0018 $N_0021  1m  
Kn_K1         L_L1 L_L2     1

.subckt SimmetrCM_S1 1 2 3 4  
S_S1         3 4 1 2 _S1
RS_S1         1 2 1G
.MODEL         _S1 VSWITCH Roff=1e6 Ron=1m Voff=0.0V Von=1.0V
.ends SimmetrCM_S1

.subckt SimmetrCM_S2 1 2 3 4  
S_S2         3 4 1 2 _S2
RS_S2         1 2 1G
.MODEL         _S2 VSWITCH Roff=1e6 Ron=1m Voff=0.0V Von=1.0V
.ends SimmetrCM_S2

.subckt SimmetrCM_S3 1 2 3 4  
S_S3         3 4 1 2 _S3
RS_S3         1 2 1G
.MODEL         _S3 VSWITCH Roff=1e6 Ron=1m Voff=0.0V Von=1.0V
.ends SimmetrCM_S3

.subckt SimmetrCM_S4 1 2 3 4  
S_S4         3 4 1 2 _S4
RS_S4         1 2 1G
.MODEL         _S4 VSWITCH Roff=1m Ron=1.0 Voff=0.0V Von=1.0V
.ends SimmetrCM_S4

**** RESUMING SimmetrCM.cir ****
.PROBE V(*) I(*) W(*) D(*) NOISE(*) 


.END


**** Generated AtoD and DtoA Interfaces ****

*
* Analog/Digital interface for node $N_0010
*
* Moving X_U1.u99:OUT1 from analog node $N_0010 to new digital node $N_0010$DtoA
X$$N_0010_DtoA1
+ $N_0010$DtoA
+ $N_0010
+ X_U1.DPWR
+ X_U1.DGND
+ DtoA_STD
+       PARAMS: DRVH=  96.4   DRVL= 104    CAPACITANCE=   0     
*
* Analog/Digital interface for node X_U1.xoutst.31
*
* Moving X_U1.xoutst.un1:OUT1 from analog node X_U1.xoutst.31 to new digital node X_U1.xoutst.31$DtoA
X$X_U1.xoutst.31_DtoA1
+ X_U1.xoutst.31$DtoA
+ X_U1.xoutst.31
+ X_U1.DPWR
+ X_U1.DGND
+ dtoa_s_o1
+       PARAMS: DRVH=   1.0000E+06 DRVL=  60.6   CAPACITANCE=   0     
*
* Analog/Digital interface for node X_U1.xoutst.32
*
* Moving X_U1.xoutst.un2:OUT1 from analog node X_U1.xoutst.32 to new digital node X_U1.xoutst.32$DtoA
X$X_U1.xoutst.32_DtoA1
+ X_U1.xoutst.32$DtoA
+ X_U1.xoutst.32
+ X_U1.DPWR
+ X_U1.DGND
+ dtoa_s_o1
+       PARAMS: DRVH=   1.0000E+06 DRVL=  60.6   CAPACITANCE=   0     
*
* Analog/Digital interface for node X_U1.xoutst.33
*
* Moving X_U1.xoutst.un11:OUT1 from analog node X_U1.xoutst.33 to new digital node X_U1.xoutst.33$DtoA
X$X_U1.xoutst.33_DtoA1
+ X_U1.xoutst.33$DtoA
+ X_U1.xoutst.33
+ X_U1.DPWR
+ X_U1.DGND
+ dtoa_s_o1
+       PARAMS: DRVH=   1.0000E+06 DRVL=  60.6   CAPACITANCE=   0     
*
* Analog/Digital interface for node X_U1.xoutst.34
*
* Moving X_U1.xoutst.un22:OUT1 from analog node X_U1.xoutst.34 to new digital node X_U1.xoutst.34$DtoA
X$X_U1.xoutst.34_DtoA1
+ X_U1.xoutst.34$DtoA
+ X_U1.xoutst.34
+ X_U1.DPWR
+ X_U1.DGND
+ dtoa_s_o1
+       PARAMS: DRVH=   1.0000E+06 DRVL=  60.6   CAPACITANCE=   0     
*
* Analog/Digital interface for node X_U1.45
*
* Moving X_U1.uor2:OUT1 from analog node X_U1.45 to new digital node X_U1.45$DtoA
X$X_U1.45_DtoA1
+ X_U1.45$DtoA
+ X_U1.45
+ X_U1.DPWR
+ X_U1.DGND
+ DtoA_STD
+       PARAMS: DRVH=  96.4   DRVL= 104    CAPACITANCE=   0     
*
* Analog/Digital interface power supply subcircuits
*

X$DIGIFPWR 0 DIGIFPWR

**** 02/04/19 15:07:24 ********* PSpice 9.2 (Mar 2000) ******** ID# 1 ********

 * C:\Workspace_MAI\DCDC\PSE38\SimmetrCM.sch


 ****     Diode MODEL PARAMETERS


******************************************************************************




               Dbreak          X_U1.xbl1.x2.x1.dxea25 
          IS   10.000000E-15  800.000000E-18 
          RS     .1                          
         CJO  100.000000E-15                 


**** 02/04/19 15:07:24 ********* PSpice 9.2 (Mar 2000) ******** ID# 1 ********

 * C:\Workspace_MAI\DCDC\PSE38\SimmetrCM.sch


 ****     BJT MODEL PARAMETERS


******************************************************************************




               q_pwm           X_U1.xbl1.x2.x1.qxea25 
               NPN             NPN             
          IS    1.340000E-15  800.000000E-18 
          BF   65.62          100            
          NF    1               1            
         VAF   74.03                         
         IKF     .5385                       
         ISE   19.480000E-15                 
          NE    1.208                        
          BR    9.715           1            
          NR    1               1            
          RB   10                            
          RC    9                            
         CJE    2.010000E-12                 
         MJE     .377                        
         CJC    1.393000E-12                 
         MJC     .3416                       
          TF  408.800000E-12                 
         XTF    3                            
         VTF    1.7                          
         ITF     .6                          
          TR  100.000000E-12                 
         XTB    1.5                          
          CN    2.42            2.42         
           D     .87             .87         


**** 02/04/19 15:07:24 ********* PSpice 9.2 (Mar 2000) ******** ID# 1 ********

 * C:\Workspace_MAI\DCDC\PSE38\SimmetrCM.sch


 ****     Voltage Controlled Switch MODEL PARAMETERS


******************************************************************************




               X_S1._S1        X_S2._S2        X_S3._S3        X_S4._S4        
         RON    1.000000E-03    1.000000E-03    1.000000E-03    1            
        ROFF    1.000000E+06    1.000000E+06    1.000000E+06    1.000000E-03 
         VON    1               1               1               1            
        VOFF    0               0               0               0            


               sstop25         ssoftd25        
         RON    1               5.000000E+03 
        ROFF  100.000000E+06  100.000000E+06 
         VON   13               1            
        VOFF   12                .7          


**** 02/04/19 15:07:24 ********* PSpice 9.2 (Mar 2000) ******** ID# 1 ********

 * C:\Workspace_MAI\DCDC\PSE38\SimmetrCM.sch


 ****     Current Controlled Switch MODEL PARAMETERS


******************************************************************************




               X_U1.xoutst.x2.isw25 
         RON    1            
        ROFF  100.000000E+06 
         ION    1.5          
        IOFF    1.3          


**** 02/04/19 15:07:24 ********* PSpice 9.2 (Mar 2000) ******** ID# 1 ********

 * C:\Workspace_MAI\DCDC\PSE38\SimmetrCM.sch


 ****     Digital Input MODEL PARAMETERS


******************************************************************************




               dincone         DIN74           din74s_o1       
        FILE DSO_DTOA        DSO_DTOA        DSO_DTOA        
      FORMAT    6               6               6            
    TIMESTEP  100.000000E-12  100.000000E-12  100.000000E-12 
         CLO                                    1.000000E-12 
         CHI                                    1.000000E-12 
      S0NAME 0               0               0               
       S0TSW    3.500000E-09    3.500000E-09  100.000000E-12 
       S0RLO    1.000000E+03    7.13             .1          
       S0RHI    1             389              10.000000E+03 
      S1NAME 1               1               1               
       S1TSW    5.500000E-09    5.500000E-09  100.000000E-12 
       S1RLO    1             467             200.000000E+03 
       S1RHI    1.000000E+03  200             200.000000E+03 
      S2NAME X               X               x               
       S2TSW    3.500000E-09    3.500000E-09  100.000000E-12 
       S2RLO   42.9            42.9            34.6          
       S2RHI  116             116              98.4          
      S3NAME R               R               z               
       S3TSW    3.500000E-09    3.500000E-09  100.000000E-12 
       S3RLO   42.9            42.9           200.000000E+03 
       S3RHI  116             116             200.000000E+03 
      S4NAME F               F               R               
       S4TSW    3.500000E-09    3.500000E-09  100.000000E-12 
       S4RLO   42.9            42.9            34.6          
       S4RHI  116             116              98.4          
      S5NAME Z               Z               F               
       S5TSW    3.500000E-09    3.500000E-09  100.000000E-12 
       S5RLO  200.000000E+03  200.000000E+03   34.6          
       S5RHI  200.000000E+03  200.000000E+03   98.4          


**** 02/04/19 15:07:24 ********* PSpice 9.2 (Mar 2000) ******** ID# 1 ********

 * C:\Workspace_MAI\DCDC\PSE38\SimmetrCM.sch


 ****     Digital Output MODEL PARAMETERS


******************************************************************************




               X_U1.uvl        X_U1.uvlref     X_U1.cmp1825    X_U1.trig1825   
        FILE DSO_ATOD        DSO_ATOD        DSO_ATOD        DSO_ATOD        
      FORMAT    6               6               6               6            
     CHGONLY    1               1               1               1            
    TIMESTEP  100.000000E-12  100.000000E-12  100.000000E-12  100.000000E-12 
      S0NAME 0               0               0               0               
       S0VHI    9.8             4.2                                          
       S0VLO   -5              -1             -35             -35            
      S1NAME 1               1               1               1               
       S1VHI   50              10              70              70            
       S1VLO    9               4                                            


               X_U1.x15.cmp    X_U1.xbl1.x1.compwm 
        FILE DSO_ATOD        DSO_ATOD        
      FORMAT    6               6            
     CHGONLY    1               1            
    TIMESTEP  100.000000E-12  100.000000E-12 
      S0NAME 0               0               
       S0VLO  -20.000000E+03  -30            
      S1NAME 1               1               
       S1VHI   20.000000E+03   30            


**** 02/04/19 15:07:24 ********* PSpice 9.2 (Mar 2000) ******** ID# 1 ********

 * C:\Workspace_MAI\DCDC\PSE38\SimmetrCM.sch


 ****     Digital Gate MODEL PARAMETERS


******************************************************************************




               d0_gate         
      TPLHMN    0            
      TPLHTY    0            
      TPLHMX    0            
      TPHLMN    0            
      TPHLTY    0            
      TPHLMX    0            


**** 02/04/19 15:07:24 ********* PSpice 9.2 (Mar 2000) ******** ID# 1 ********

 * C:\Workspace_MAI\DCDC\PSE38\SimmetrCM.sch


 ****     Digital Edge Triggered FF MODEL PARAMETERS


******************************************************************************




               d0_eff          
  TPCLKQLHMN    0            
  TPCLKQLHTY    0            
  TPCLKQLHMX    0            
  TPCLKQHLMN    0            
  TPCLKQHLTY    0            
  TPCLKQHLMX    0            
   TPPCQLHMN    0            
   TPPCQLHTY    0            
   TPPCQLHMX    0            
   TPPCQHLMN    0            
   TPPCQHLTY    0            
   TPPCQHLMX    0            
    TWCLKLMN    0            
    TWCLKLTY    0            
    TWCLKLMX    0            
    TWCLKHMN    0            
    TWCLKHTY    0            
    TWCLKHMX    0            
     TWPCLMN    0            
     TWPCLTY    0            
     TWPCLMX    0            
   TSUDCLKMN    0            
   TSUDCLKTY    0            
   TSUDCLKMX    0            
 TSUPCCLKHMN    0            
 TSUPCCLKHTY    0            
 TSUPCCLKHMX    0            
    THDCLKMN    0            
    THDCLKTY    0            
    THDCLKMX    0            
  TSUCECLKMN    0            
  TSUCECLKTY    0            
  TSUCECLKMX    0            
   THCECLKMN    0            
   THCECLKTY    0            
   THCECLKMX    0            


**** 02/04/19 15:07:24 ********* PSpice 9.2 (Mar 2000) ******** ID# 1 ********

 * C:\Workspace_MAI\DCDC\PSE38\SimmetrCM.sch


 ****     Digital Gated FF MODEL PARAMETERS


******************************************************************************




               d0_gff          
    TPDQLHMN    0            
    TPDQLHTY    0            
    TPDQLHMX    0            
    TPDQHLMN    0            
    TPDQHLTY    0            
    TPDQHLMX    0            
    TPGQLHMN    0            
    TPGQLHTY    0            
    TPGQLHMX    0            
    TPGQHLMN    0            
    TPGQHLTY    0            
    TPGQHLMX    0            
   TPPCQLHMN    0            
   TPPCQLHTY    0            
   TPPCQLHMX    0            
   TPPCQHLMN    0            
   TPPCQHLTY    0            
   TPPCQHLMX    0            
      TWGHMN    0            
      TWGHTY    0            
      TWGHMX    0            
     TWPCLMN    0            
     TWPCLTY    0            
     TWPCLMX    0            
     TSUDGMN    0            
     TSUDGTY    0            
     TSUDGMX    0            
   TSUPCGHMN    0            
   TSUPCGHTY    0            
   TSUPCGHMX    0            
      THDGMN    0            
      THDGTY    0            
      THDGMX    0            


**** 02/04/19 15:07:24 ********* PSpice 9.2 (Mar 2000) ******** ID# 1 ********

 * C:\Workspace_MAI\DCDC\PSE38\SimmetrCM.sch


 ****     Digital Delay Line MODEL PARAMETERS


******************************************************************************




               X_U1.xlog.dlmod 
       DLYMN    0            
       DLYTY   70.000000E-09 
       DLYMX   70.000000E-09 


**** 02/04/19 15:07:24 ********* PSpice 9.2 (Mar 2000) ******** ID# 1 ********

 * C:\Workspace_MAI\DCDC\PSE38\SimmetrCM.sch


 ****     Digital IO  MODEL PARAMETERS


******************************************************************************




               io_std          io_pwm_oc       io_stm          io_s_oc         
        DRVL  104              60.6             0              60.6          
        DRVH   96.4             1.000000E+06    0               1.000000E+06 
       AtoD1 AtoD_STD        atod_s                          AtoD_S          
       AtoD2 AtoD_STD_NX     atod_s_nx                       AtoD_S_NX       
       AtoD3 AtoD_STD        atod_s_e                        AtoD_S          
       AtoD4 AtoD_STD_NX     atod_s_nxe                      AtoD_S_NX       
       DtoA1 DtoA_STD        dtoa_s_o1       DtoA_STM        DtoA_S_OC       
       DtoA2 DtoA_STD        dtoa_s_o1       DtoA_STM        DtoA_S_OC       
       DtoA3 DtoA_STD        dtoa_s_o1       DtoA_STM        DtoA_S_OC       
       DtoA4 DtoA_STD        dtoa_s_o1       DtoA_STM        DtoA_S_OC       
      TSWHL1    1.511000E-09                                    1.305000E-09 
      TSWHL2    1.487000E-09                                    1.306000E-09 
      TSWHL3    1.511000E-09                                    1.305000E-09 
      TSWHL4    1.487000E-09                                    1.306000E-09 
      TSWLH1    3.517000E-09                                  483.000000E-12 
      TSWLH2    3.564000E-09                                  471.000000E-12 
      TSWLH3    3.517000E-09                                  483.000000E-12 
      TSWLH4    3.564000E-09                                  471.000000E-12 
       TPWRT  100.000000E+03  100.000000E+03  100.000000E+03  100.000000E+03 


**** 02/04/19 15:07:24 ********* PSpice 9.2 (Mar 2000) ******** ID# 1 ********

 * C:\Workspace_MAI\DCDC\PSE38\SimmetrCM.sch


 ****     INITIAL TRANSIENT SOLUTION       TEMPERATURE =   27.000 DEG C


******************************************************************************



 NODE   VOLTAGE     NODE   VOLTAGE     NODE   VOLTAGE     NODE   VOLTAGE


(  AA1)     .0054  (  AA2)     .0054  ($G_DGND)    0.0000                       

($G_DPWR)    5.0000                   ($N_0001) 162.7E-06                       

($N_0002) 162.7E-06                   ($N_0003)  300.0000                       

($N_0004)  300.0000                   ($N_0005) 162.1E-06                       

($N_0006)   15.0000                   ($N_0007)   12.3130                       

($N_0008)    5.0980                   ($N_0009)    1.0000                       

($N_0010)    3.4998                   ($N_0011)    1.0197                       

($N_0012)    4.6957                   ($N_0013)    4.6957                       

($N_0014) 50.18E-09                   ($N_0016) 24.48E-09                       

($N_0017) 24.48E-09                   ($N_0018) 1.235E-12                       

($N_0019) 2.447E-12                   ($N_0020) 1.235E-12                       

($N_0021) 1.235E-12                   (I_sence) 162.1E-06                       

(X_U1.45)     .0900                   (X_U1.57)    4.6957                       

(X_U1.11a)     .0054                  (X_U1.14a)     .0054                      

(X_U1.16a)    5.1000                  (X_U1.16b)    5.1000                      

(X_U1.one)    1.0000                  (X_U1.1111)    1.0000                     

(X_U1.1144)    1.4000                 (X_U1.conv)    1.0000                     

(X_U1.DGND)    0.0000                 (X_U1.DPWR)    5.0000                     

(X_U1.check)     .0020                (X_U1.uvcompaa) 999.0E-06                 

(X_U1.x15.offs) 100.0E-06             (X_U1.x15.ramp1)    1.0000                

(X_U1.xoutst.14)   15.0000            (X_U1.xoutst.31)     .1486                

(X_U1.xoutst.32)     .1486            (X_U1.xoutst.33)   12.9840                

(X_U1.xoutst.34)   12.9840            (X_U1.xbl1.x1.67)    2.2697               

(X_U1.xbl1.x2.77)    5.0980           (X_U1.x15.pos_neg) 100.0E-06              

(X_U1.xbl1.x2.110)    1.1700          (X_U1.xbl1.x2.x1.6)  -12.0610             

(X_U1.xbl1.x2.x1.7)    4.7022         (X_U1.xbl1.x2.x1.8)    4.7022             

(X_U1.xbl1.x2.x1.9)    0.0000         (X_U1.xbl1.x2.x1.10)    4.1353            

(X_U1.xbl1.x2.x1.11)    5.0980        (X_U1.xbl1.x2.x1.12)    4.7489            

(X_U1.xbl1.x2.x1.13)    4.1353        (X_U1.xbl1.x2.x1.14)    4.4322            

(X_U1.xbl1.x2.x1.53)    4.0280        (X_U1.xbl1.x2.x1.54)    1.1700            

(X_U1.xbl1.x2.x1.90)     .1303        (X_U1.xbl1.x2.x1.91)    2.5000            

(X_U1.xbl1.x2.x1.92)    -.7000        (X_U1.xbl1.x2.x1.99)    3.1340            

(X_U1.xoutst.x2.140)     .0054        (X_U1.xoutst.x2.141)     .0054            

(X_U1.xoutst.x2.143)    0.0000        (X_U1.xoutst.x2.144)    0.0000            

(X_U1.xoutst.x2.731)     .1486        (X_U1.xoutst.x2.732)     .1486            

(X_U1.xoutst.x2.733)    2.9106        (X_U1.xoutst.x2.734)    2.9106            

(X_U1.xoutst.x2.735)   14.0000        (X_U1.xbl1.x2.x2.440)    1.0000           

(X_U1.xbl1.x2.x2.550)    0.0000       (X_U1.xbl1.x2.x2.conv)    1.0000      



 DGTL NODE : STATE  DGTL NODE : STATE  DGTL NODE : STATE  DGTL NODE : STATE


(X_U1.xoutst.33$DtoA) : Z             ( X_U1.46) : 0     ( X_U1.20) : 1         

( X_U1.49) : 0     ( X_U1.73) : 1     (X_U1.xoutst.34$DtoA) : Z                 

( X_U1.21) : 0     ($N_0010$DtoA) : 1                    (X_U1.xlog.17) : 1     

(X_U1.xoutst.31$DtoA) : 0             (X_U1.xlog.18) : 0                        

(X_U1.xlog.2) : 1  (X_U1.xlog.73z) : 1                                          

(X_U1.xoutst.32$DtoA) : 0             (X_U1.dclk) : 1    (X_U1.10011) : 1       

(X_U1.10012) : 1   ( X_U1.44) : 0     (X_U1.xbl1.x1.39) : 0                     

(X_U1.45$DtoA) : 0                    (X_U1.xlog.87) : 0                        

(X_U1.1001) : 0    




    VOLTAGE SOURCE CURRENTS
    NAME         CURRENT

    V_V1        -3.005E-04
    V_V2        -2.210E-02
    V_V3        -3.005E-04
    X_U1.v1     -9.990E-04
    X_U1.vconv  -1.000E-03
    X_U1.vsens   1.021E-03
    X_U1.v_clkset  -1.000E-05
    X_U1.vtrig1  -9.998E-13
    X_U1.vtrig2  -1.400E-12
    X_U1.xdigpwr.VDPWR  -2.102E-02
    X_U1.xdigpwr.VDGND   2.992E+00
    X_U1.x15.vser   0.000E+00
    X_U1.x15.vofset  -1.000E-04
    X_U1.xbl1.x1.vadd   2.426E-12
    X_U1.xbl1.x2.vgndamp   1.492E-03
    X_U1.xoutst.x2.vs1   1.891E-11
    X_U1.xoutst.x2.vs2   1.891E-11
    X_U1.xoutst.x2.vs3   2.015E-01
    X_U1.xoutst.x2.vs4   2.015E-01
    X_U1.xoutst.x2.vdrop   3.688E-11
    X_U1.xbl1.x2.x1.vb  -1.206E-04
    X_U1.xbl1.x2.x1.vc  -1.303E-04
    X_U1.xbl1.x2.x1.ve   3.526E-12
    X_U1.xbl1.x2.x1.vlim   1.303E-04
    X_U1.xbl1.x2.x1.vlp  -2.371E-12
    X_U1.xbl1.x2.x1.vln  -8.311E-13
    X_U1.xbl1.x2.x2.vconv  -1.000E-03
    X$DIGIFPWR.VDPWR  -5.000E-06
    X$DIGIFPWR.VDGND  -5.000E-06

    TOTAL POWER DISSIPATION   6.18E-01  WATTS


**** 02/04/19 15:07:24 ********* PSpice 9.2 (Mar 2000) ******** ID# 1 ********

 * C:\Workspace_MAI\DCDC\PSE38\SimmetrCM.sch


 ****     SIMULATION ERRORS


******************************************************************************




DIGITAL Message ID#1 (SERIOUS):
DIGITAL INPUT VOLTAGE Hazard at time 129.5ns
  Device: X_U1.xbl1.x1.o6
  Voltage V(X_U1.xbl1.x1.67,X_U1.57)= 30.0220 is beyond the ranges defined in model X_U1.xbl1.x1.compwm


ERROR -- Convergence problem in transient analysis at Time =  142.1E-09
         Time step =  13.08E-15, minimum allowable step size =  100.0E-15

  These devices failed to converge:
    X_U1.xoutst.x2.qo3 



  Last node voltages tried were:

 NODE   VOLTAGE     NODE   VOLTAGE     NODE   VOLTAGE     NODE   VOLTAGE


(  AA1)     .0054  (  AA2)     .5563  ($G_DGND)    0.0000                       

($G_DPWR)    5.0000                   ($N_0001)    5.4267                       

($N_0002)    5.3938                   ($N_0003)  300.0000                       

($N_0004)  300.0000                   ($N_0005)   39.4420                       

($N_0006)   15.0000                   ($N_0007)   10.7830                       

($N_0008)    5.1000                   ($N_0009)    1.0028                       

($N_0010)     .0900                   ($N_0011)   39.7770                       

($N_0012)    4.6977                   ($N_0013)    4.6976                       

($N_0014)     .0019                   ($N_0016)     .0017                       

($N_0017)     .0042                   ($N_0018)     .0190                       

($N_0019)     .0042                   ($N_0020)    -.0149                       

($N_0021)     .0191                   (I_sence)    5.3405                       

(X_U1.45)    3.5008                   (X_U1.57)    4.6977                       

(X_U1.11a)     .0054                  (X_U1.14a)   13.8820                      

(X_U1.16a)    5.1000                  (X_U1.16b)    5.1000                      

(X_U1.one)    1.0000                  (X_U1.1111)    1.0000                     

(X_U1.1144)    1.4000                 (X_U1.conv)    1.0000                     

(X_U1.DGND)    0.0000                 (X_U1.DPWR)    5.0000                     

(X_U1.check)    0.0000                (X_U1.uvcompaa) 999.0E-06                 

(X_U1.x15.offs) 100.0E-06             (X_U1.x15.ramp1)    1.0028                

(X_U1.xoutst.14)   15.0000            (X_U1.xoutst.31)     .1486                

(X_U1.xoutst.32)     .1502            (X_U1.xoutst.33)   12.9840                

(X_U1.xoutst.34)   12.9730            (X_U1.xbl1.x1.67)   41.0270               

(X_U1.xbl1.x2.77)    5.1000           (X_U1.x15.pos_neg)    -.2000              

(X_U1.xbl1.x2.110)    1.1700          (X_U1.xbl1.x2.x1.6)  -12.0600             

(X_U1.xbl1.x2.x1.7)    4.7042         (X_U1.xbl1.x2.x1.8)    4.7042             

(X_U1.xbl1.x2.x1.9)    0.0000         (X_U1.xbl1.x2.x1.10)    4.1373            

(X_U1.xbl1.x2.x1.11)    5.1000        (X_U1.xbl1.x2.x1.12)    4.7510            

(X_U1.xbl1.x2.x1.13)    4.1373        (X_U1.xbl1.x2.x1.14)    4.4343            

(X_U1.xbl1.x2.x1.53)    4.0300        (X_U1.xbl1.x2.x1.54)    1.1700            

(X_U1.xbl1.x2.x1.90)     .1303        (X_U1.xbl1.x2.x1.91)    2.5000            

(X_U1.xbl1.x2.x1.92)    -.7000        (X_U1.xbl1.x2.x1.99)    3.1350            

(X_U1.xoutst.x2.140)     .0054        (X_U1.xoutst.x2.141)     .5563            

(X_U1.xoutst.x2.143)    0.0000        (X_U1.xoutst.x2.144)    0.0000            

(X_U1.xoutst.x2.731)     .1486        (X_U1.xoutst.x2.732)     .9943            

(X_U1.xoutst.x2.733)    2.9106        (X_U1.xoutst.x2.734)    2.8436            

(X_U1.xoutst.x2.735)   14.0000        (X_U1.xbl1.x2.x2.440)    1.0000           

(X_U1.xbl1.x2.x2.550)    0.0000       (X_U1.xbl1.x2.x2.conv)    1.0000      



 DGTL NODE : STATE  DGTL NODE : STATE  DGTL NODE : STATE  DGTL NODE : STATE


(X_U1.xoutst.33$DtoA) : Z             ( X_U1.46) : 1     ( X_U1.20) : 0         

( X_U1.49) : 1     ( X_U1.73) : 1     (X_U1.xoutst.34$DtoA) : Z                 

( X_U1.21) : 1     ($N_0010$DtoA) : 0                    (X_U1.xlog.17) : 0     

(X_U1.xoutst.31$DtoA) : 0             (X_U1.xlog.18) : 1                        

(X_U1.xlog.2) : 1  (X_U1.xlog.73z) : 1                                          

(X_U1.xoutst.32$DtoA) : 0             (X_U1.dclk) : 0    (X_U1.10011) : 1       

(X_U1.10012) : 1   ( X_U1.44) : 1     (X_U1.xbl1.x1.39) : 1                     

(X_U1.45$DtoA) : 1                    (X_U1.xlog.87) : 1                        

(X_U1.1001) : 0    


          JOB ABORTED

          TOTAL JOB TIME          138.55
